file 655920163 1621805066                                       
version 2
run General-0-20210523-23:21:39-7244
attr configname General
attr datetime 20210523-23:21:39
attr experiment General
attr inifile omnetpp.ini
attr iterationvars ""
attr iterationvarsf ""
attr measurement ""
attr network Dynamique
attr processid 7244
attr repetition 0
attr replication #0
attr resultdir results
attr runnumber 0
attr seedset 0
param *.*.mobility.constraintAreaMaxX 510m
param *.*.mobility.constraintAreaMaxY 540m
param *.*.mobility.constraintAreaMinX 90m
param *.*.mobility.constraintAreaMinY 60m
param *.*.mobility.constraintAreaMaxZ 0m
param *.*.mobility.constraintAreaMinZ 0m
param *.Nodes[*].mobility.typename "\"LinearMobility\""
param *.Nodes[*].mobility.numHosts 30
param *.Nodes[*].mobility.speed 5mps
param *.*.ipv4.arp.typename "\"GlobalArp\""
param *.Nodes[*].numApps 1
param *.Nodes[*].app[0].typename "\"App\""
param *.Nodes[*].app[0].nbHosts 30
param *.Nodes[*].app[0].messageLength 100B
param *.Nodes[*].app[*].sendInterval exponential(1s)
param *.Nodes[*].app[*].localPort 3000
param *.Nodes[*].app[*].destPort 3000
param *.*.app[0].receiveBroadcast true
param *.*.app[*].startTime 0
param **.mobility.initFromDisplayString false
param *.*.wlan[0].typename "\"AckingWirelessInterface\""
param *.*.wlan[0].mac.useAck false
param *.*.wlan[0].mac.fullDuplex true
param *.*.wlan[0].radio.transmitter.communicationRange 170m
param *.*.wlan[0].radio.receiver.ignoreInterference true
param *.*.**.bitrate 1Mbps
param *.*.wlan[*].radio.typename "\"UnitDiskRadio\""
param **.wlan[0].radio.displayCommunicationRange true
param **.ppp[*].queue.typename "\"DropTailQueue\""
param **.ppp[*].queue.frameCapacity 20000
param **.ip.limitedBroadcast true
param *.Nodes[*].forwarding true
param **.ppp[*].queue.typename "\"DropTailQueue\""
param **.ppp[*].queue.frameCapacity 20000
param **.ip.limitedBroadcast true

vector 0 Dynamique.Nodes[0].wlan[0].radio radioMode:vector ETV
attr interpolationmode sample-hold
attr source radioModeChanged
attr title "Radio mode, vector"
vector 1 Dynamique.Nodes[1].wlan[0].radio radioMode:vector ETV
attr interpolationmode sample-hold
attr source radioModeChanged
attr title "Radio mode, vector"
vector 2 Dynamique.Nodes[2].wlan[0].radio radioMode:vector ETV
attr interpolationmode sample-hold
attr source radioModeChanged
attr title "Radio mode, vector"
vector 3 Dynamique.Nodes[3].wlan[0].radio radioMode:vector ETV
attr interpolationmode sample-hold
attr source radioModeChanged
attr title "Radio mode, vector"
vector 4 Dynamique.Nodes[4].wlan[0].radio radioMode:vector ETV
attr interpolationmode sample-hold
attr source radioModeChanged
attr title "Radio mode, vector"
vector 5 Dynamique.Nodes[5].wlan[0].radio radioMode:vector ETV
attr interpolationmode sample-hold
attr source radioModeChanged
attr title "Radio mode, vector"
vector 6 Dynamique.Nodes[6].wlan[0].radio radioMode:vector ETV
attr interpolationmode sample-hold
attr source radioModeChanged
attr title "Radio mode, vector"
vector 7 Dynamique.Nodes[7].wlan[0].radio radioMode:vector ETV
attr interpolationmode sample-hold
attr source radioModeChanged
attr title "Radio mode, vector"
vector 8 Dynamique.Nodes[8].wlan[0].radio radioMode:vector ETV
attr interpolationmode sample-hold
attr source radioModeChanged
attr title "Radio mode, vector"
vector 9 Dynamique.Nodes[9].wlan[0].radio radioMode:vector ETV
attr interpolationmode sample-hold
attr source radioModeChanged
attr title "Radio mode, vector"
vector 10 Dynamique.Nodes[10].wlan[0].radio radioMode:vector ETV
attr interpolationmode sample-hold
attr source radioModeChanged
attr title "Radio mode, vector"
vector 11 Dynamique.Nodes[11].wlan[0].radio radioMode:vector ETV
attr interpolationmode sample-hold
attr source radioModeChanged
attr title "Radio mode, vector"
vector 12 Dynamique.Nodes[12].wlan[0].radio radioMode:vector ETV
attr interpolationmode sample-hold
attr source radioModeChanged
attr title "Radio mode, vector"
vector 13 Dynamique.Nodes[13].wlan[0].radio radioMode:vector ETV
attr interpolationmode sample-hold
attr source radioModeChanged
attr title "Radio mode, vector"
vector 14 Dynamique.Nodes[14].wlan[0].radio radioMode:vector ETV
attr interpolationmode sample-hold
attr source radioModeChanged
attr title "Radio mode, vector"
vector 15 Dynamique.Nodes[15].wlan[0].radio radioMode:vector ETV
attr interpolationmode sample-hold
attr source radioModeChanged
attr title "Radio mode, vector"
vector 16 Dynamique.Nodes[16].wlan[0].radio radioMode:vector ETV
attr interpolationmode sample-hold
attr source radioModeChanged
attr title "Radio mode, vector"
vector 17 Dynamique.Nodes[17].wlan[0].radio radioMode:vector ETV
attr interpolationmode sample-hold
attr source radioModeChanged
attr title "Radio mode, vector"
vector 18 Dynamique.Nodes[18].wlan[0].radio radioMode:vector ETV
attr interpolationmode sample-hold
attr source radioModeChanged
attr title "Radio mode, vector"
vector 19 Dynamique.Nodes[19].wlan[0].radio radioMode:vector ETV
attr interpolationmode sample-hold
attr source radioModeChanged
attr title "Radio mode, vector"
vector 20 Dynamique.Nodes[20].wlan[0].radio radioMode:vector ETV
attr interpolationmode sample-hold
attr source radioModeChanged
attr title "Radio mode, vector"
vector 21 Dynamique.Nodes[21].wlan[0].radio radioMode:vector ETV
attr interpolationmode sample-hold
attr source radioModeChanged
attr title "Radio mode, vector"
vector 22 Dynamique.Nodes[22].wlan[0].radio radioMode:vector ETV
attr interpolationmode sample-hold
attr source radioModeChanged
attr title "Radio mode, vector"
vector 23 Dynamique.Nodes[23].wlan[0].radio radioMode:vector ETV
attr interpolationmode sample-hold
attr source radioModeChanged
attr title "Radio mode, vector"
vector 24 Dynamique.Nodes[24].wlan[0].radio radioMode:vector ETV
attr interpolationmode sample-hold
attr source radioModeChanged
attr title "Radio mode, vector"
vector 25 Dynamique.Nodes[25].wlan[0].radio radioMode:vector ETV
attr interpolationmode sample-hold
attr source radioModeChanged
attr title "Radio mode, vector"
vector 26 Dynamique.Nodes[26].wlan[0].radio radioMode:vector ETV
attr interpolationmode sample-hold
attr source radioModeChanged
attr title "Radio mode, vector"
vector 27 Dynamique.Nodes[27].wlan[0].radio radioMode:vector ETV
attr interpolationmode sample-hold
attr source radioModeChanged
attr title "Radio mode, vector"
vector 28 Dynamique.Nodes[28].wlan[0].radio radioMode:vector ETV
attr interpolationmode sample-hold
attr source radioModeChanged
attr title "Radio mode, vector"
vector 29 Dynamique.Nodes[29].wlan[0].radio radioMode:vector ETV
attr interpolationmode sample-hold
attr source radioModeChanged
attr title "Radio mode, vector"
vector 30 Dynamique.Nodes[0].wlan[0].radio receptionState:vector ETV
attr interpolationmode sample-hold
attr source receptionStateChanged
attr title "Radio reception state, vector"
vector 31 Dynamique.Nodes[0].wlan[0].radio transmissionState:vector ETV
attr interpolationmode sample-hold
attr source transmissionStateChanged
attr title "Radio transmission state, vector"
vector 32 Dynamique.Nodes[1].wlan[0].radio receptionState:vector ETV
attr interpolationmode sample-hold
attr source receptionStateChanged
attr title "Radio reception state, vector"
vector 33 Dynamique.Nodes[1].wlan[0].radio transmissionState:vector ETV
attr interpolationmode sample-hold
attr source transmissionStateChanged
attr title "Radio transmission state, vector"
vector 34 Dynamique.Nodes[2].wlan[0].radio receptionState:vector ETV
attr interpolationmode sample-hold
attr source receptionStateChanged
attr title "Radio reception state, vector"
vector 35 Dynamique.Nodes[2].wlan[0].radio transmissionState:vector ETV
attr interpolationmode sample-hold
attr source transmissionStateChanged
attr title "Radio transmission state, vector"
vector 36 Dynamique.Nodes[3].wlan[0].radio receptionState:vector ETV
attr interpolationmode sample-hold
attr source receptionStateChanged
attr title "Radio reception state, vector"
vector 37 Dynamique.Nodes[3].wlan[0].radio transmissionState:vector ETV
attr interpolationmode sample-hold
attr source transmissionStateChanged
attr title "Radio transmission state, vector"
vector 38 Dynamique.Nodes[4].wlan[0].radio receptionState:vector ETV
attr interpolationmode sample-hold
attr source receptionStateChanged
attr title "Radio reception state, vector"
vector 39 Dynamique.Nodes[4].wlan[0].radio transmissionState:vector ETV
attr interpolationmode sample-hold
attr source transmissionStateChanged
attr title "Radio transmission state, vector"
vector 40 Dynamique.Nodes[5].wlan[0].radio receptionState:vector ETV
attr interpolationmode sample-hold
attr source receptionStateChanged
attr title "Radio reception state, vector"
vector 41 Dynamique.Nodes[5].wlan[0].radio transmissionState:vector ETV
attr interpolationmode sample-hold
attr source transmissionStateChanged
attr title "Radio transmission state, vector"
vector 42 Dynamique.Nodes[6].wlan[0].radio receptionState:vector ETV
attr interpolationmode sample-hold
attr source receptionStateChanged
attr title "Radio reception state, vector"
vector 43 Dynamique.Nodes[6].wlan[0].radio transmissionState:vector ETV
attr interpolationmode sample-hold
attr source transmissionStateChanged
attr title "Radio transmission state, vector"
vector 44 Dynamique.Nodes[7].wlan[0].radio receptionState:vector ETV
attr interpolationmode sample-hold
attr source receptionStateChanged
attr title "Radio reception state, vector"
vector 45 Dynamique.Nodes[7].wlan[0].radio transmissionState:vector ETV
attr interpolationmode sample-hold
attr source transmissionStateChanged
attr title "Radio transmission state, vector"
vector 46 Dynamique.Nodes[8].wlan[0].radio receptionState:vector ETV
attr interpolationmode sample-hold
attr source receptionStateChanged
attr title "Radio reception state, vector"
vector 47 Dynamique.Nodes[8].wlan[0].radio transmissionState:vector ETV
attr interpolationmode sample-hold
attr source transmissionStateChanged
attr title "Radio transmission state, vector"
vector 48 Dynamique.Nodes[9].wlan[0].radio receptionState:vector ETV
attr interpolationmode sample-hold
attr source receptionStateChanged
attr title "Radio reception state, vector"
vector 49 Dynamique.Nodes[9].wlan[0].radio transmissionState:vector ETV
attr interpolationmode sample-hold
attr source transmissionStateChanged
attr title "Radio transmission state, vector"
vector 50 Dynamique.Nodes[10].wlan[0].radio receptionState:vector ETV
attr interpolationmode sample-hold
attr source receptionStateChanged
attr title "Radio reception state, vector"
vector 51 Dynamique.Nodes[10].wlan[0].radio transmissionState:vector ETV
attr interpolationmode sample-hold
attr source transmissionStateChanged
attr title "Radio transmission state, vector"
vector 52 Dynamique.Nodes[11].wlan[0].radio receptionState:vector ETV
attr interpolationmode sample-hold
attr source receptionStateChanged
attr title "Radio reception state, vector"
vector 53 Dynamique.Nodes[11].wlan[0].radio transmissionState:vector ETV
attr interpolationmode sample-hold
attr source transmissionStateChanged
attr title "Radio transmission state, vector"
vector 54 Dynamique.Nodes[12].wlan[0].radio receptionState:vector ETV
attr interpolationmode sample-hold
attr source receptionStateChanged
attr title "Radio reception state, vector"
vector 55 Dynamique.Nodes[12].wlan[0].radio transmissionState:vector ETV
attr interpolationmode sample-hold
attr source transmissionStateChanged
attr title "Radio transmission state, vector"
vector 56 Dynamique.Nodes[13].wlan[0].radio receptionState:vector ETV
attr interpolationmode sample-hold
attr source receptionStateChanged
attr title "Radio reception state, vector"
vector 57 Dynamique.Nodes[13].wlan[0].radio transmissionState:vector ETV
attr interpolationmode sample-hold
attr source transmissionStateChanged
attr title "Radio transmission state, vector"
vector 58 Dynamique.Nodes[14].wlan[0].radio receptionState:vector ETV
attr interpolationmode sample-hold
attr source receptionStateChanged
attr title "Radio reception state, vector"
vector 59 Dynamique.Nodes[14].wlan[0].radio transmissionState:vector ETV
attr interpolationmode sample-hold
attr source transmissionStateChanged
attr title "Radio transmission state, vector"
vector 60 Dynamique.Nodes[15].wlan[0].radio receptionState:vector ETV
attr interpolationmode sample-hold
attr source receptionStateChanged
attr title "Radio reception state, vector"
vector 61 Dynamique.Nodes[15].wlan[0].radio transmissionState:vector ETV
attr interpolationmode sample-hold
attr source transmissionStateChanged
attr title "Radio transmission state, vector"
vector 62 Dynamique.Nodes[16].wlan[0].radio receptionState:vector ETV
attr interpolationmode sample-hold
attr source receptionStateChanged
attr title "Radio reception state, vector"
vector 63 Dynamique.Nodes[16].wlan[0].radio transmissionState:vector ETV
attr interpolationmode sample-hold
attr source transmissionStateChanged
attr title "Radio transmission state, vector"
vector 64 Dynamique.Nodes[17].wlan[0].radio receptionState:vector ETV
attr interpolationmode sample-hold
attr source receptionStateChanged
attr title "Radio reception state, vector"
vector 65 Dynamique.Nodes[17].wlan[0].radio transmissionState:vector ETV
attr interpolationmode sample-hold
attr source transmissionStateChanged
attr title "Radio transmission state, vector"
vector 66 Dynamique.Nodes[18].wlan[0].radio receptionState:vector ETV
attr interpolationmode sample-hold
attr source receptionStateChanged
attr title "Radio reception state, vector"
vector 67 Dynamique.Nodes[18].wlan[0].radio transmissionState:vector ETV
attr interpolationmode sample-hold
attr source transmissionStateChanged
attr title "Radio transmission state, vector"
vector 68 Dynamique.Nodes[19].wlan[0].radio receptionState:vector ETV
attr interpolationmode sample-hold
attr source receptionStateChanged
attr title "Radio reception state, vector"
vector 69 Dynamique.Nodes[19].wlan[0].radio transmissionState:vector ETV
attr interpolationmode sample-hold
attr source transmissionStateChanged
attr title "Radio transmission state, vector"
vector 70 Dynamique.Nodes[20].wlan[0].radio receptionState:vector ETV
attr interpolationmode sample-hold
attr source receptionStateChanged
attr title "Radio reception state, vector"
vector 71 Dynamique.Nodes[20].wlan[0].radio transmissionState:vector ETV
attr interpolationmode sample-hold
attr source transmissionStateChanged
attr title "Radio transmission state, vector"
vector 72 Dynamique.Nodes[21].wlan[0].radio receptionState:vector ETV
attr interpolationmode sample-hold
attr source receptionStateChanged
attr title "Radio reception state, vector"
vector 73 Dynamique.Nodes[21].wlan[0].radio transmissionState:vector ETV
attr interpolationmode sample-hold
attr source transmissionStateChanged
attr title "Radio transmission state, vector"
vector 74 Dynamique.Nodes[22].wlan[0].radio receptionState:vector ETV
attr interpolationmode sample-hold
attr source receptionStateChanged
attr title "Radio reception state, vector"
vector 75 Dynamique.Nodes[22].wlan[0].radio transmissionState:vector ETV
attr interpolationmode sample-hold
attr source transmissionStateChanged
attr title "Radio transmission state, vector"
vector 76 Dynamique.Nodes[23].wlan[0].radio receptionState:vector ETV
attr interpolationmode sample-hold
attr source receptionStateChanged
attr title "Radio reception state, vector"
vector 77 Dynamique.Nodes[23].wlan[0].radio transmissionState:vector ETV
attr interpolationmode sample-hold
attr source transmissionStateChanged
attr title "Radio transmission state, vector"
vector 78 Dynamique.Nodes[24].wlan[0].radio receptionState:vector ETV
attr interpolationmode sample-hold
attr source receptionStateChanged
attr title "Radio reception state, vector"
vector 79 Dynamique.Nodes[24].wlan[0].radio transmissionState:vector ETV
attr interpolationmode sample-hold
attr source transmissionStateChanged
attr title "Radio transmission state, vector"
vector 80 Dynamique.Nodes[25].wlan[0].radio receptionState:vector ETV
attr interpolationmode sample-hold
attr source receptionStateChanged
attr title "Radio reception state, vector"
vector 81 Dynamique.Nodes[25].wlan[0].radio transmissionState:vector ETV
attr interpolationmode sample-hold
attr source transmissionStateChanged
attr title "Radio transmission state, vector"
vector 82 Dynamique.Nodes[26].wlan[0].radio receptionState:vector ETV
attr interpolationmode sample-hold
attr source receptionStateChanged
attr title "Radio reception state, vector"
vector 83 Dynamique.Nodes[26].wlan[0].radio transmissionState:vector ETV
attr interpolationmode sample-hold
attr source transmissionStateChanged
attr title "Radio transmission state, vector"
vector 84 Dynamique.Nodes[27].wlan[0].radio receptionState:vector ETV
attr interpolationmode sample-hold
attr source receptionStateChanged
attr title "Radio reception state, vector"
vector 85 Dynamique.Nodes[27].wlan[0].radio transmissionState:vector ETV
attr interpolationmode sample-hold
attr source transmissionStateChanged
attr title "Radio transmission state, vector"
vector 86 Dynamique.Nodes[28].wlan[0].radio receptionState:vector ETV
attr interpolationmode sample-hold
attr source receptionStateChanged
attr title "Radio reception state, vector"
vector 87 Dynamique.Nodes[28].wlan[0].radio transmissionState:vector ETV
attr interpolationmode sample-hold
attr source transmissionStateChanged
attr title "Radio transmission state, vector"
vector 88 Dynamique.Nodes[29].wlan[0].radio receptionState:vector ETV
attr interpolationmode sample-hold
attr source receptionStateChanged
attr title "Radio reception state, vector"
vector 89 Dynamique.Nodes[29].wlan[0].radio transmissionState:vector ETV
attr interpolationmode sample-hold
attr source transmissionStateChanged
attr title "Radio transmission state, vector"
vector 90 Dynamique.Nodes[24].udp packetSent:vector(packetBytes) ETV
attr interpolationmode none
attr source packetSent
attr title "packets sent, vector(packetBytes)"
vector 91 Dynamique.Nodes[24].wlan[0].mac rcvdPkFromHl:vector(packetBytes) ETV
attr interpolationmode none
attr source packetReceivedFromUpper
attr title "packets received from higher layer, vector(packetBytes)"
vector 92 Dynamique.Nodes[24].wlan[0].mac.queue packetPushed:vector(packetBytes) ETV
attr interpolationmode none
attr title "packet pushed, vector(packetBytes)"
vector 93 Dynamique.Nodes[24].wlan[0].mac.queue queueLength:vector ETV
attr interpolationmode sample-hold
attr source "count(packetPushed) - count(packetPopped) - count(packetRemoved) - count(packetDropped)"
attr title "queue length, vector"
vector 94 Dynamique.Nodes[24].wlan[0].mac.queue packetPopped:vector(packetBytes) ETV
attr interpolationmode none
attr title "packet popped, vector(packetBytes)"
vector 95 Dynamique.Nodes[24].wlan[0].mac.queue queueingTime:vector ETV
attr interpolationmode none
attr source queueingTime(packetPopped)
attr title "queueing times, vector"
attr unit s
vector 96 Dynamique.Nodes[24].wlan[0].mac sentDownPk:vector(packetBytes) ETV
attr interpolationmode none
attr source packetSentToLower
attr title "packets sent to lower layer, vector(packetBytes)"
vector 97 Dynamique.Nodes[27].wlan[0].mac rcvdPkFromLl:vector(packetBytes) ETV
attr interpolationmode none
attr source packetReceivedFromLower
attr title "packets received from lower layer, vector(packetBytes)"
vector 98 Dynamique.Nodes[27].wlan[0].mac passedUpPk:vector(packetBytes) ETV
attr interpolationmode none
attr source packetSentToUpper
attr title "packets passed to higher layer, vector(packetBytes)"
vector 99 Dynamique.Nodes[27].udp packetReceived:vector(packetBytes) ETV
attr interpolationmode none
attr source packetReceived
attr title "packets received, vector(packetBytes)"
vector 100 Dynamique.Nodes[27].udp passedUpPk:vector(count) ETV
attr interpolationmode none
attr source packetSentToUpper
attr title "packets passed up, vector(count)"
vector 101 Dynamique.Nodes[27].udp packetSent:vector(packetBytes) ETV
attr interpolationmode none
attr source packetSent
attr title "packets sent, vector(packetBytes)"
vector 102 Dynamique.Nodes[27].wlan[0].mac rcvdPkFromHl:vector(packetBytes) ETV
attr interpolationmode none
attr source packetReceivedFromUpper
attr title "packets received from higher layer, vector(packetBytes)"
vector 103 Dynamique.Nodes[27].wlan[0].mac.queue packetPushed:vector(packetBytes) ETV
attr interpolationmode none
attr title "packet pushed, vector(packetBytes)"
vector 104 Dynamique.Nodes[27].wlan[0].mac.queue queueLength:vector ETV
attr interpolationmode sample-hold
attr source "count(packetPushed) - count(packetPopped) - count(packetRemoved) - count(packetDropped)"
attr title "queue length, vector"
vector 105 Dynamique.Nodes[27].wlan[0].mac.queue packetPopped:vector(packetBytes) ETV
attr interpolationmode none
attr title "packet popped, vector(packetBytes)"
vector 106 Dynamique.Nodes[27].wlan[0].mac.queue queueingTime:vector ETV
attr interpolationmode none
attr source queueingTime(packetPopped)
attr title "queueing times, vector"
attr unit s
vector 107 Dynamique.Nodes[27].wlan[0].mac sentDownPk:vector(packetBytes) ETV
attr interpolationmode none
attr source packetSentToLower
attr title "packets sent to lower layer, vector(packetBytes)"
vector 108 Dynamique.Nodes[20].wlan[0].mac rcvdPkFromLl:vector(packetBytes) ETV
attr interpolationmode none
attr source packetReceivedFromLower
attr title "packets received from lower layer, vector(packetBytes)"
vector 109 Dynamique.Nodes[20].wlan[0].mac passedUpPk:vector(packetBytes) ETV
attr interpolationmode none
attr source packetSentToUpper
attr title "packets passed to higher layer, vector(packetBytes)"
vector 110 Dynamique.Nodes[20].udp packetReceived:vector(packetBytes) ETV
attr interpolationmode none
attr source packetReceived
attr title "packets received, vector(packetBytes)"
vector 111 Dynamique.Nodes[20].udp passedUpPk:vector(count) ETV
attr interpolationmode none
attr source packetSentToUpper
attr title "packets passed up, vector(count)"
vector 112 Dynamique.Nodes[20].udp packetSent:vector(packetBytes) ETV
attr interpolationmode none
attr source packetSent
attr title "packets sent, vector(packetBytes)"
vector 113 Dynamique.Nodes[20].wlan[0].mac rcvdPkFromHl:vector(packetBytes) ETV
attr interpolationmode none
attr source packetReceivedFromUpper
attr title "packets received from higher layer, vector(packetBytes)"
vector 114 Dynamique.Nodes[20].wlan[0].mac.queue packetPushed:vector(packetBytes) ETV
attr interpolationmode none
attr title "packet pushed, vector(packetBytes)"
vector 115 Dynamique.Nodes[20].wlan[0].mac.queue queueLength:vector ETV
attr interpolationmode sample-hold
attr source "count(packetPushed) - count(packetPopped) - count(packetRemoved) - count(packetDropped)"
attr title "queue length, vector"
vector 116 Dynamique.Nodes[20].wlan[0].mac.queue packetPopped:vector(packetBytes) ETV
attr interpolationmode none
attr title "packet popped, vector(packetBytes)"
vector 117 Dynamique.Nodes[20].wlan[0].mac.queue queueingTime:vector ETV
attr interpolationmode none
attr source queueingTime(packetPopped)
attr title "queueing times, vector"
attr unit s
vector 118 Dynamique.Nodes[20].wlan[0].mac sentDownPk:vector(packetBytes) ETV
attr interpolationmode none
attr source packetSentToLower
attr title "packets sent to lower layer, vector(packetBytes)"
vector 119 Dynamique.Nodes[2].wlan[0].mac rcvdPkFromLl:vector(packetBytes) ETV
attr interpolationmode none
attr source packetReceivedFromLower
attr title "packets received from lower layer, vector(packetBytes)"
vector 120 Dynamique.Nodes[2].wlan[0].mac passedUpPk:vector(packetBytes) ETV
attr interpolationmode none
attr source packetSentToUpper
attr title "packets passed to higher layer, vector(packetBytes)"
vector 121 Dynamique.Nodes[2].udp packetReceived:vector(packetBytes) ETV
attr interpolationmode none
attr source packetReceived
attr title "packets received, vector(packetBytes)"
vector 122 Dynamique.Nodes[2].udp passedUpPk:vector(count) ETV
attr interpolationmode none
attr source packetSentToUpper
attr title "packets passed up, vector(count)"
vector 123 Dynamique.Nodes[2].udp packetSent:vector(packetBytes) ETV
attr interpolationmode none
attr source packetSent
attr title "packets sent, vector(packetBytes)"
vector 124 Dynamique.Nodes[2].wlan[0].mac rcvdPkFromHl:vector(packetBytes) ETV
attr interpolationmode none
attr source packetReceivedFromUpper
attr title "packets received from higher layer, vector(packetBytes)"
vector 125 Dynamique.Nodes[2].wlan[0].mac.queue packetPushed:vector(packetBytes) ETV
attr interpolationmode none
attr title "packet pushed, vector(packetBytes)"
vector 126 Dynamique.Nodes[2].wlan[0].mac.queue queueLength:vector ETV
attr interpolationmode sample-hold
attr source "count(packetPushed) - count(packetPopped) - count(packetRemoved) - count(packetDropped)"
attr title "queue length, vector"
vector 127 Dynamique.Nodes[2].wlan[0].mac.queue packetPopped:vector(packetBytes) ETV
attr interpolationmode none
attr title "packet popped, vector(packetBytes)"
vector 128 Dynamique.Nodes[2].wlan[0].mac.queue queueingTime:vector ETV
attr interpolationmode none
attr source queueingTime(packetPopped)
attr title "queueing times, vector"
attr unit s
vector 129 Dynamique.Nodes[2].wlan[0].mac sentDownPk:vector(packetBytes) ETV
attr interpolationmode none
attr source packetSentToLower
attr title "packets sent to lower layer, vector(packetBytes)"
vector 130 Dynamique.Nodes[13].wlan[0].mac rcvdPkFromLl:vector(packetBytes) ETV
attr interpolationmode none
attr source packetReceivedFromLower
attr title "packets received from lower layer, vector(packetBytes)"
vector 131 Dynamique.Nodes[13].wlan[0].mac passedUpPk:vector(packetBytes) ETV
attr interpolationmode none
attr source packetSentToUpper
attr title "packets passed to higher layer, vector(packetBytes)"
vector 132 Dynamique.Nodes[13].udp packetReceived:vector(packetBytes) ETV
attr interpolationmode none
attr source packetReceived
attr title "packets received, vector(packetBytes)"
vector 133 Dynamique.Nodes[13].udp passedUpPk:vector(count) ETV
attr interpolationmode none
attr source packetSentToUpper
attr title "packets passed up, vector(count)"
vector 134 Dynamique.Nodes[13].udp packetSent:vector(packetBytes) ETV
attr interpolationmode none
attr source packetSent
attr title "packets sent, vector(packetBytes)"
vector 135 Dynamique.Nodes[13].wlan[0].mac rcvdPkFromHl:vector(packetBytes) ETV
attr interpolationmode none
attr source packetReceivedFromUpper
attr title "packets received from higher layer, vector(packetBytes)"
vector 136 Dynamique.Nodes[13].wlan[0].mac.queue packetPushed:vector(packetBytes) ETV
attr interpolationmode none
attr title "packet pushed, vector(packetBytes)"
vector 137 Dynamique.Nodes[13].wlan[0].mac.queue queueLength:vector ETV
attr interpolationmode sample-hold
attr source "count(packetPushed) - count(packetPopped) - count(packetRemoved) - count(packetDropped)"
attr title "queue length, vector"
vector 138 Dynamique.Nodes[13].wlan[0].mac.queue packetPopped:vector(packetBytes) ETV
attr interpolationmode none
attr title "packet popped, vector(packetBytes)"
vector 139 Dynamique.Nodes[13].wlan[0].mac.queue queueingTime:vector ETV
attr interpolationmode none
attr source queueingTime(packetPopped)
attr title "queueing times, vector"
attr unit s
vector 140 Dynamique.Nodes[13].wlan[0].mac sentDownPk:vector(packetBytes) ETV
attr interpolationmode none
attr source packetSentToLower
attr title "packets sent to lower layer, vector(packetBytes)"
vector 141 Dynamique.Nodes[11].wlan[0].mac rcvdPkFromLl:vector(packetBytes) ETV
attr interpolationmode none
attr source packetReceivedFromLower
attr title "packets received from lower layer, vector(packetBytes)"
vector 142 Dynamique.Nodes[11].wlan[0].mac passedUpPk:vector(packetBytes) ETV
attr interpolationmode none
attr source packetSentToUpper
attr title "packets passed to higher layer, vector(packetBytes)"
vector 143 Dynamique.Nodes[11].udp packetReceived:vector(packetBytes) ETV
attr interpolationmode none
attr source packetReceived
attr title "packets received, vector(packetBytes)"
vector 144 Dynamique.Nodes[11].udp passedUpPk:vector(count) ETV
attr interpolationmode none
attr source packetSentToUpper
attr title "packets passed up, vector(count)"
vector 145 Dynamique.Nodes[11].udp packetSent:vector(packetBytes) ETV
attr interpolationmode none
attr source packetSent
attr title "packets sent, vector(packetBytes)"
vector 146 Dynamique.Nodes[11].wlan[0].mac rcvdPkFromHl:vector(packetBytes) ETV
attr interpolationmode none
attr source packetReceivedFromUpper
attr title "packets received from higher layer, vector(packetBytes)"
vector 147 Dynamique.Nodes[11].wlan[0].mac.queue packetPushed:vector(packetBytes) ETV
attr interpolationmode none
attr title "packet pushed, vector(packetBytes)"
vector 148 Dynamique.Nodes[11].wlan[0].mac.queue queueLength:vector ETV
attr interpolationmode sample-hold
attr source "count(packetPushed) - count(packetPopped) - count(packetRemoved) - count(packetDropped)"
attr title "queue length, vector"
vector 149 Dynamique.Nodes[11].wlan[0].mac.queue packetPopped:vector(packetBytes) ETV
attr interpolationmode none
attr title "packet popped, vector(packetBytes)"
vector 150 Dynamique.Nodes[11].wlan[0].mac.queue queueingTime:vector ETV
attr interpolationmode none
attr source queueingTime(packetPopped)
attr title "queueing times, vector"
attr unit s
vector 151 Dynamique.Nodes[11].wlan[0].mac sentDownPk:vector(packetBytes) ETV
attr interpolationmode none
attr source packetSentToLower
attr title "packets sent to lower layer, vector(packetBytes)"
vector 152 Dynamique.Nodes[12].wlan[0].mac rcvdPkFromLl:vector(packetBytes) ETV
attr interpolationmode none
attr source packetReceivedFromLower
attr title "packets received from lower layer, vector(packetBytes)"
vector 153 Dynamique.Nodes[12].wlan[0].mac passedUpPk:vector(packetBytes) ETV
attr interpolationmode none
attr source packetSentToUpper
attr title "packets passed to higher layer, vector(packetBytes)"
vector 154 Dynamique.Nodes[12].udp packetReceived:vector(packetBytes) ETV
attr interpolationmode none
attr source packetReceived
attr title "packets received, vector(packetBytes)"
vector 155 Dynamique.Nodes[12].udp passedUpPk:vector(count) ETV
attr interpolationmode none
attr source packetSentToUpper
attr title "packets passed up, vector(count)"
vector 156 Dynamique.Nodes[12].udp packetSent:vector(packetBytes) ETV
attr interpolationmode none
attr source packetSent
attr title "packets sent, vector(packetBytes)"
vector 157 Dynamique.Nodes[12].wlan[0].mac rcvdPkFromHl:vector(packetBytes) ETV
attr interpolationmode none
attr source packetReceivedFromUpper
attr title "packets received from higher layer, vector(packetBytes)"
vector 158 Dynamique.Nodes[12].wlan[0].mac.queue packetPushed:vector(packetBytes) ETV
attr interpolationmode none
attr title "packet pushed, vector(packetBytes)"
vector 159 Dynamique.Nodes[12].wlan[0].mac.queue queueLength:vector ETV
attr interpolationmode sample-hold
attr source "count(packetPushed) - count(packetPopped) - count(packetRemoved) - count(packetDropped)"
attr title "queue length, vector"
vector 160 Dynamique.Nodes[12].wlan[0].mac.queue packetPopped:vector(packetBytes) ETV
attr interpolationmode none
attr title "packet popped, vector(packetBytes)"
vector 161 Dynamique.Nodes[12].wlan[0].mac.queue queueingTime:vector ETV
attr interpolationmode none
attr source queueingTime(packetPopped)
attr title "queueing times, vector"
attr unit s
vector 162 Dynamique.Nodes[12].wlan[0].mac sentDownPk:vector(packetBytes) ETV
attr interpolationmode none
attr source packetSentToLower
attr title "packets sent to lower layer, vector(packetBytes)"
vector 163 Dynamique.Nodes[29].wlan[0].mac rcvdPkFromLl:vector(packetBytes) ETV
attr interpolationmode none
attr source packetReceivedFromLower
attr title "packets received from lower layer, vector(packetBytes)"
vector 164 Dynamique.Nodes[29].wlan[0].mac passedUpPk:vector(packetBytes) ETV
attr interpolationmode none
attr source packetSentToUpper
attr title "packets passed to higher layer, vector(packetBytes)"
vector 165 Dynamique.Nodes[29].udp packetReceived:vector(packetBytes) ETV
attr interpolationmode none
attr source packetReceived
attr title "packets received, vector(packetBytes)"
vector 166 Dynamique.Nodes[29].udp passedUpPk:vector(count) ETV
attr interpolationmode none
attr source packetSentToUpper
attr title "packets passed up, vector(count)"
vector 167 Dynamique.Nodes[29].udp packetSent:vector(packetBytes) ETV
attr interpolationmode none
attr source packetSent
attr title "packets sent, vector(packetBytes)"
vector 168 Dynamique.Nodes[29].wlan[0].mac rcvdPkFromHl:vector(packetBytes) ETV
attr interpolationmode none
attr source packetReceivedFromUpper
attr title "packets received from higher layer, vector(packetBytes)"
vector 169 Dynamique.Nodes[29].wlan[0].mac.queue packetPushed:vector(packetBytes) ETV
attr interpolationmode none
attr title "packet pushed, vector(packetBytes)"
vector 170 Dynamique.Nodes[29].wlan[0].mac.queue queueLength:vector ETV
attr interpolationmode sample-hold
attr source "count(packetPushed) - count(packetPopped) - count(packetRemoved) - count(packetDropped)"
attr title "queue length, vector"
vector 171 Dynamique.Nodes[29].wlan[0].mac.queue packetPopped:vector(packetBytes) ETV
attr interpolationmode none
attr title "packet popped, vector(packetBytes)"
vector 172 Dynamique.Nodes[29].wlan[0].mac.queue queueingTime:vector ETV
attr interpolationmode none
attr source queueingTime(packetPopped)
attr title "queueing times, vector"
attr unit s
vector 173 Dynamique.Nodes[29].wlan[0].mac sentDownPk:vector(packetBytes) ETV
attr interpolationmode none
attr source packetSentToLower
attr title "packets sent to lower layer, vector(packetBytes)"
vector 174 Dynamique.Nodes[0].wlan[0].mac rcvdPkFromLl:vector(packetBytes) ETV
attr interpolationmode none
attr source packetReceivedFromLower
attr title "packets received from lower layer, vector(packetBytes)"
vector 175 Dynamique.Nodes[0].wlan[0].mac passedUpPk:vector(packetBytes) ETV
attr interpolationmode none
attr source packetSentToUpper
attr title "packets passed to higher layer, vector(packetBytes)"
vector 176 Dynamique.Nodes[0].udp packetReceived:vector(packetBytes) ETV
attr interpolationmode none
attr source packetReceived
attr title "packets received, vector(packetBytes)"
vector 177 Dynamique.Nodes[0].udp passedUpPk:vector(count) ETV
attr interpolationmode none
attr source packetSentToUpper
attr title "packets passed up, vector(count)"
vector 178 Dynamique.Nodes[0].udp packetSent:vector(packetBytes) ETV
attr interpolationmode none
attr source packetSent
attr title "packets sent, vector(packetBytes)"
vector 179 Dynamique.Nodes[0].wlan[0].mac rcvdPkFromHl:vector(packetBytes) ETV
attr interpolationmode none
attr source packetReceivedFromUpper
attr title "packets received from higher layer, vector(packetBytes)"
vector 180 Dynamique.Nodes[0].wlan[0].mac.queue packetPushed:vector(packetBytes) ETV
attr interpolationmode none
attr title "packet pushed, vector(packetBytes)"
vector 181 Dynamique.Nodes[0].wlan[0].mac.queue queueLength:vector ETV
attr interpolationmode sample-hold
attr source "count(packetPushed) - count(packetPopped) - count(packetRemoved) - count(packetDropped)"
attr title "queue length, vector"
vector 182 Dynamique.Nodes[0].wlan[0].mac.queue packetPopped:vector(packetBytes) ETV
attr interpolationmode none
attr title "packet popped, vector(packetBytes)"
vector 183 Dynamique.Nodes[0].wlan[0].mac.queue queueingTime:vector ETV
attr interpolationmode none
attr source queueingTime(packetPopped)
attr title "queueing times, vector"
attr unit s
vector 184 Dynamique.Nodes[0].wlan[0].mac sentDownPk:vector(packetBytes) ETV
attr interpolationmode none
attr source packetSentToLower
attr title "packets sent to lower layer, vector(packetBytes)"
vector 185 Dynamique.Nodes[28].wlan[0].mac rcvdPkFromLl:vector(packetBytes) ETV
attr interpolationmode none
attr source packetReceivedFromLower
attr title "packets received from lower layer, vector(packetBytes)"
vector 186 Dynamique.Nodes[28].wlan[0].mac passedUpPk:vector(packetBytes) ETV
attr interpolationmode none
attr source packetSentToUpper
attr title "packets passed to higher layer, vector(packetBytes)"
vector 187 Dynamique.Nodes[28].udp packetReceived:vector(packetBytes) ETV
attr interpolationmode none
attr source packetReceived
attr title "packets received, vector(packetBytes)"
vector 188 Dynamique.Nodes[28].udp passedUpPk:vector(count) ETV
attr interpolationmode none
attr source packetSentToUpper
attr title "packets passed up, vector(count)"
vector 189 Dynamique.Nodes[28].udp packetSent:vector(packetBytes) ETV
attr interpolationmode none
attr source packetSent
attr title "packets sent, vector(packetBytes)"
vector 190 Dynamique.Nodes[28].wlan[0].mac rcvdPkFromHl:vector(packetBytes) ETV
attr interpolationmode none
attr source packetReceivedFromUpper
attr title "packets received from higher layer, vector(packetBytes)"
vector 191 Dynamique.Nodes[28].wlan[0].mac.queue packetPushed:vector(packetBytes) ETV
attr interpolationmode none
attr title "packet pushed, vector(packetBytes)"
vector 192 Dynamique.Nodes[28].wlan[0].mac.queue queueLength:vector ETV
attr interpolationmode sample-hold
attr source "count(packetPushed) - count(packetPopped) - count(packetRemoved) - count(packetDropped)"
attr title "queue length, vector"
vector 193 Dynamique.Nodes[28].wlan[0].mac.queue packetPopped:vector(packetBytes) ETV
attr interpolationmode none
attr title "packet popped, vector(packetBytes)"
vector 194 Dynamique.Nodes[28].wlan[0].mac.queue queueingTime:vector ETV
attr interpolationmode none
attr source queueingTime(packetPopped)
attr title "queueing times, vector"
attr unit s
vector 195 Dynamique.Nodes[28].wlan[0].mac sentDownPk:vector(packetBytes) ETV
attr interpolationmode none
attr source packetSentToLower
attr title "packets sent to lower layer, vector(packetBytes)"
vector 196 Dynamique.Nodes[23].wlan[0].mac rcvdPkFromLl:vector(packetBytes) ETV
attr interpolationmode none
attr source packetReceivedFromLower
attr title "packets received from lower layer, vector(packetBytes)"
vector 197 Dynamique.Nodes[23].wlan[0].mac passedUpPk:vector(packetBytes) ETV
attr interpolationmode none
attr source packetSentToUpper
attr title "packets passed to higher layer, vector(packetBytes)"
vector 198 Dynamique.Nodes[23].udp packetReceived:vector(packetBytes) ETV
attr interpolationmode none
attr source packetReceived
attr title "packets received, vector(packetBytes)"
vector 199 Dynamique.Nodes[23].udp passedUpPk:vector(count) ETV
attr interpolationmode none
attr source packetSentToUpper
attr title "packets passed up, vector(count)"
vector 200 Dynamique.Nodes[23].udp packetSent:vector(packetBytes) ETV
attr interpolationmode none
attr source packetSent
attr title "packets sent, vector(packetBytes)"
vector 201 Dynamique.Nodes[23].wlan[0].mac rcvdPkFromHl:vector(packetBytes) ETV
attr interpolationmode none
attr source packetReceivedFromUpper
attr title "packets received from higher layer, vector(packetBytes)"
vector 202 Dynamique.Nodes[23].wlan[0].mac.queue packetPushed:vector(packetBytes) ETV
attr interpolationmode none
attr title "packet pushed, vector(packetBytes)"
vector 203 Dynamique.Nodes[23].wlan[0].mac.queue queueLength:vector ETV
attr interpolationmode sample-hold
attr source "count(packetPushed) - count(packetPopped) - count(packetRemoved) - count(packetDropped)"
attr title "queue length, vector"
vector 204 Dynamique.Nodes[23].wlan[0].mac.queue packetPopped:vector(packetBytes) ETV
attr interpolationmode none
attr title "packet popped, vector(packetBytes)"
vector 205 Dynamique.Nodes[23].wlan[0].mac.queue queueingTime:vector ETV
attr interpolationmode none
attr source queueingTime(packetPopped)
attr title "queueing times, vector"
attr unit s
vector 206 Dynamique.Nodes[23].wlan[0].mac sentDownPk:vector(packetBytes) ETV
attr interpolationmode none
attr source packetSentToLower
attr title "packets sent to lower layer, vector(packetBytes)"
vector 207 Dynamique.Nodes[22].wlan[0].mac rcvdPkFromLl:vector(packetBytes) ETV
attr interpolationmode none
attr source packetReceivedFromLower
attr title "packets received from lower layer, vector(packetBytes)"
vector 208 Dynamique.Nodes[22].wlan[0].mac passedUpPk:vector(packetBytes) ETV
attr interpolationmode none
attr source packetSentToUpper
attr title "packets passed to higher layer, vector(packetBytes)"
vector 209 Dynamique.Nodes[22].udp packetReceived:vector(packetBytes) ETV
attr interpolationmode none
attr source packetReceived
attr title "packets received, vector(packetBytes)"
vector 210 Dynamique.Nodes[22].udp passedUpPk:vector(count) ETV
attr interpolationmode none
attr source packetSentToUpper
attr title "packets passed up, vector(count)"
vector 211 Dynamique.Nodes[22].udp packetSent:vector(packetBytes) ETV
attr interpolationmode none
attr source packetSent
attr title "packets sent, vector(packetBytes)"
vector 212 Dynamique.Nodes[22].wlan[0].mac rcvdPkFromHl:vector(packetBytes) ETV
attr interpolationmode none
attr source packetReceivedFromUpper
attr title "packets received from higher layer, vector(packetBytes)"
vector 213 Dynamique.Nodes[22].wlan[0].mac.queue packetPushed:vector(packetBytes) ETV
attr interpolationmode none
attr title "packet pushed, vector(packetBytes)"
vector 214 Dynamique.Nodes[22].wlan[0].mac.queue queueLength:vector ETV
attr interpolationmode sample-hold
attr source "count(packetPushed) - count(packetPopped) - count(packetRemoved) - count(packetDropped)"
attr title "queue length, vector"
vector 215 Dynamique.Nodes[22].wlan[0].mac.queue packetPopped:vector(packetBytes) ETV
attr interpolationmode none
attr title "packet popped, vector(packetBytes)"
vector 216 Dynamique.Nodes[22].wlan[0].mac.queue queueingTime:vector ETV
attr interpolationmode none
attr source queueingTime(packetPopped)
attr title "queueing times, vector"
attr unit s
vector 217 Dynamique.Nodes[22].wlan[0].mac sentDownPk:vector(packetBytes) ETV
attr interpolationmode none
attr source packetSentToLower
attr title "packets sent to lower layer, vector(packetBytes)"
vector 218 Dynamique.Nodes[1].wlan[0].mac rcvdPkFromLl:vector(packetBytes) ETV
attr interpolationmode none
attr source packetReceivedFromLower
attr title "packets received from lower layer, vector(packetBytes)"
vector 219 Dynamique.Nodes[1].wlan[0].mac passedUpPk:vector(packetBytes) ETV
attr interpolationmode none
attr source packetSentToUpper
attr title "packets passed to higher layer, vector(packetBytes)"
vector 220 Dynamique.Nodes[1].udp packetReceived:vector(packetBytes) ETV
attr interpolationmode none
attr source packetReceived
attr title "packets received, vector(packetBytes)"
vector 221 Dynamique.Nodes[1].udp passedUpPk:vector(count) ETV
attr interpolationmode none
attr source packetSentToUpper
attr title "packets passed up, vector(count)"
vector 222 Dynamique.Nodes[1].udp packetSent:vector(packetBytes) ETV
attr interpolationmode none
attr source packetSent
attr title "packets sent, vector(packetBytes)"
vector 223 Dynamique.Nodes[1].wlan[0].mac rcvdPkFromHl:vector(packetBytes) ETV
attr interpolationmode none
attr source packetReceivedFromUpper
attr title "packets received from higher layer, vector(packetBytes)"
vector 224 Dynamique.Nodes[1].wlan[0].mac.queue packetPushed:vector(packetBytes) ETV
attr interpolationmode none
attr title "packet pushed, vector(packetBytes)"
vector 225 Dynamique.Nodes[1].wlan[0].mac.queue queueLength:vector ETV
attr interpolationmode sample-hold
attr source "count(packetPushed) - count(packetPopped) - count(packetRemoved) - count(packetDropped)"
attr title "queue length, vector"
vector 226 Dynamique.Nodes[1].wlan[0].mac.queue packetPopped:vector(packetBytes) ETV
attr interpolationmode none
attr title "packet popped, vector(packetBytes)"
vector 227 Dynamique.Nodes[1].wlan[0].mac.queue queueingTime:vector ETV
attr interpolationmode none
attr source queueingTime(packetPopped)
attr title "queueing times, vector"
attr unit s
vector 228 Dynamique.Nodes[1].wlan[0].mac sentDownPk:vector(packetBytes) ETV
attr interpolationmode none
attr source packetSentToLower
attr title "packets sent to lower layer, vector(packetBytes)"
vector 229 Dynamique.Nodes[8].wlan[0].mac rcvdPkFromLl:vector(packetBytes) ETV
attr interpolationmode none
attr source packetReceivedFromLower
attr title "packets received from lower layer, vector(packetBytes)"
vector 230 Dynamique.Nodes[8].wlan[0].mac passedUpPk:vector(packetBytes) ETV
attr interpolationmode none
attr source packetSentToUpper
attr title "packets passed to higher layer, vector(packetBytes)"
vector 231 Dynamique.Nodes[8].udp packetReceived:vector(packetBytes) ETV
attr interpolationmode none
attr source packetReceived
attr title "packets received, vector(packetBytes)"
vector 232 Dynamique.Nodes[8].udp passedUpPk:vector(count) ETV
attr interpolationmode none
attr source packetSentToUpper
attr title "packets passed up, vector(count)"
vector 233 Dynamique.Nodes[8].udp packetSent:vector(packetBytes) ETV
attr interpolationmode none
attr source packetSent
attr title "packets sent, vector(packetBytes)"
vector 234 Dynamique.Nodes[8].wlan[0].mac rcvdPkFromHl:vector(packetBytes) ETV
attr interpolationmode none
attr source packetReceivedFromUpper
attr title "packets received from higher layer, vector(packetBytes)"
vector 235 Dynamique.Nodes[8].wlan[0].mac.queue packetPushed:vector(packetBytes) ETV
attr interpolationmode none
attr title "packet pushed, vector(packetBytes)"
vector 236 Dynamique.Nodes[8].wlan[0].mac.queue queueLength:vector ETV
attr interpolationmode sample-hold
attr source "count(packetPushed) - count(packetPopped) - count(packetRemoved) - count(packetDropped)"
attr title "queue length, vector"
vector 237 Dynamique.Nodes[8].wlan[0].mac.queue packetPopped:vector(packetBytes) ETV
attr interpolationmode none
attr title "packet popped, vector(packetBytes)"
vector 238 Dynamique.Nodes[8].wlan[0].mac.queue queueingTime:vector ETV
attr interpolationmode none
attr source queueingTime(packetPopped)
attr title "queueing times, vector"
attr unit s
vector 239 Dynamique.Nodes[8].wlan[0].mac sentDownPk:vector(packetBytes) ETV
attr interpolationmode none
attr source packetSentToLower
attr title "packets sent to lower layer, vector(packetBytes)"
vector 240 Dynamique.Nodes[3].wlan[0].mac rcvdPkFromLl:vector(packetBytes) ETV
attr interpolationmode none
attr source packetReceivedFromLower
attr title "packets received from lower layer, vector(packetBytes)"
vector 241 Dynamique.Nodes[3].wlan[0].mac passedUpPk:vector(packetBytes) ETV
attr interpolationmode none
attr source packetSentToUpper
attr title "packets passed to higher layer, vector(packetBytes)"
vector 242 Dynamique.Nodes[3].udp packetReceived:vector(packetBytes) ETV
attr interpolationmode none
attr source packetReceived
attr title "packets received, vector(packetBytes)"
vector 243 Dynamique.Nodes[3].udp passedUpPk:vector(count) ETV
attr interpolationmode none
attr source packetSentToUpper
attr title "packets passed up, vector(count)"
vector 244 Dynamique.Nodes[3].udp packetSent:vector(packetBytes) ETV
attr interpolationmode none
attr source packetSent
attr title "packets sent, vector(packetBytes)"
vector 245 Dynamique.Nodes[3].wlan[0].mac rcvdPkFromHl:vector(packetBytes) ETV
attr interpolationmode none
attr source packetReceivedFromUpper
attr title "packets received from higher layer, vector(packetBytes)"
vector 246 Dynamique.Nodes[3].wlan[0].mac.queue packetPushed:vector(packetBytes) ETV
attr interpolationmode none
attr title "packet pushed, vector(packetBytes)"
vector 247 Dynamique.Nodes[3].wlan[0].mac.queue queueLength:vector ETV
attr interpolationmode sample-hold
attr source "count(packetPushed) - count(packetPopped) - count(packetRemoved) - count(packetDropped)"
attr title "queue length, vector"
vector 248 Dynamique.Nodes[3].wlan[0].mac.queue packetPopped:vector(packetBytes) ETV
attr interpolationmode none
attr title "packet popped, vector(packetBytes)"
vector 249 Dynamique.Nodes[3].wlan[0].mac.queue queueingTime:vector ETV
attr interpolationmode none
attr source queueingTime(packetPopped)
attr title "queueing times, vector"
attr unit s
vector 250 Dynamique.Nodes[3].wlan[0].mac sentDownPk:vector(packetBytes) ETV
attr interpolationmode none
attr source packetSentToLower
attr title "packets sent to lower layer, vector(packetBytes)"
vector 251 Dynamique.Nodes[6].wlan[0].mac rcvdPkFromLl:vector(packetBytes) ETV
attr interpolationmode none
attr source packetReceivedFromLower
attr title "packets received from lower layer, vector(packetBytes)"
vector 252 Dynamique.Nodes[6].wlan[0].mac passedUpPk:vector(packetBytes) ETV
attr interpolationmode none
attr source packetSentToUpper
attr title "packets passed to higher layer, vector(packetBytes)"
vector 253 Dynamique.Nodes[6].udp packetReceived:vector(packetBytes) ETV
attr interpolationmode none
attr source packetReceived
attr title "packets received, vector(packetBytes)"
vector 254 Dynamique.Nodes[6].udp passedUpPk:vector(count) ETV
attr interpolationmode none
attr source packetSentToUpper
attr title "packets passed up, vector(count)"
vector 255 Dynamique.Nodes[6].udp packetSent:vector(packetBytes) ETV
attr interpolationmode none
attr source packetSent
attr title "packets sent, vector(packetBytes)"
vector 256 Dynamique.Nodes[6].wlan[0].mac rcvdPkFromHl:vector(packetBytes) ETV
attr interpolationmode none
attr source packetReceivedFromUpper
attr title "packets received from higher layer, vector(packetBytes)"
vector 257 Dynamique.Nodes[6].wlan[0].mac.queue packetPushed:vector(packetBytes) ETV
attr interpolationmode none
attr title "packet pushed, vector(packetBytes)"
vector 258 Dynamique.Nodes[6].wlan[0].mac.queue queueLength:vector ETV
attr interpolationmode sample-hold
attr source "count(packetPushed) - count(packetPopped) - count(packetRemoved) - count(packetDropped)"
attr title "queue length, vector"
vector 259 Dynamique.Nodes[6].wlan[0].mac.queue packetPopped:vector(packetBytes) ETV
attr interpolationmode none
attr title "packet popped, vector(packetBytes)"
vector 260 Dynamique.Nodes[6].wlan[0].mac.queue queueingTime:vector ETV
attr interpolationmode none
attr source queueingTime(packetPopped)
attr title "queueing times, vector"
attr unit s
vector 261 Dynamique.Nodes[6].wlan[0].mac sentDownPk:vector(packetBytes) ETV
attr interpolationmode none
attr source packetSentToLower
attr title "packets sent to lower layer, vector(packetBytes)"
vector 262 Dynamique.Nodes[24].wlan[0].mac rcvdPkFromLl:vector(packetBytes) ETV
attr interpolationmode none
attr source packetReceivedFromLower
attr title "packets received from lower layer, vector(packetBytes)"
vector 263 Dynamique.Nodes[24].wlan[0].mac passedUpPk:vector(packetBytes) ETV
attr interpolationmode none
attr source packetSentToUpper
attr title "packets passed to higher layer, vector(packetBytes)"
vector 264 Dynamique.Nodes[24].udp packetReceived:vector(packetBytes) ETV
attr interpolationmode none
attr source packetReceived
attr title "packets received, vector(packetBytes)"
vector 265 Dynamique.Nodes[24].udp passedUpPk:vector(count) ETV
attr interpolationmode none
attr source packetSentToUpper
attr title "packets passed up, vector(count)"
vector 266 Dynamique.Nodes[17].wlan[0].mac rcvdPkFromLl:vector(packetBytes) ETV
attr interpolationmode none
attr source packetReceivedFromLower
attr title "packets received from lower layer, vector(packetBytes)"
vector 267 Dynamique.Nodes[17].wlan[0].mac passedUpPk:vector(packetBytes) ETV
attr interpolationmode none
attr source packetSentToUpper
attr title "packets passed to higher layer, vector(packetBytes)"
vector 268 Dynamique.Nodes[17].udp packetReceived:vector(packetBytes) ETV
attr interpolationmode none
attr source packetReceived
attr title "packets received, vector(packetBytes)"
vector 269 Dynamique.Nodes[17].udp passedUpPk:vector(count) ETV
attr interpolationmode none
attr source packetSentToUpper
attr title "packets passed up, vector(count)"
vector 270 Dynamique.Nodes[17].udp packetSent:vector(packetBytes) ETV
attr interpolationmode none
attr source packetSent
attr title "packets sent, vector(packetBytes)"
vector 271 Dynamique.Nodes[17].wlan[0].mac rcvdPkFromHl:vector(packetBytes) ETV
attr interpolationmode none
attr source packetReceivedFromUpper
attr title "packets received from higher layer, vector(packetBytes)"
vector 272 Dynamique.Nodes[17].wlan[0].mac.queue packetPushed:vector(packetBytes) ETV
attr interpolationmode none
attr title "packet pushed, vector(packetBytes)"
vector 273 Dynamique.Nodes[17].wlan[0].mac.queue queueLength:vector ETV
attr interpolationmode sample-hold
attr source "count(packetPushed) - count(packetPopped) - count(packetRemoved) - count(packetDropped)"
attr title "queue length, vector"
vector 274 Dynamique.Nodes[17].wlan[0].mac.queue packetPopped:vector(packetBytes) ETV
attr interpolationmode none
attr title "packet popped, vector(packetBytes)"
vector 275 Dynamique.Nodes[17].wlan[0].mac.queue queueingTime:vector ETV
attr interpolationmode none
attr source queueingTime(packetPopped)
attr title "queueing times, vector"
attr unit s
vector 276 Dynamique.Nodes[17].wlan[0].mac sentDownPk:vector(packetBytes) ETV
attr interpolationmode none
attr source packetSentToLower
attr title "packets sent to lower layer, vector(packetBytes)"
vector 277 Dynamique.Nodes[7].wlan[0].mac rcvdPkFromLl:vector(packetBytes) ETV
attr interpolationmode none
attr source packetReceivedFromLower
attr title "packets received from lower layer, vector(packetBytes)"
vector 278 Dynamique.Nodes[7].wlan[0].mac passedUpPk:vector(packetBytes) ETV
attr interpolationmode none
attr source packetSentToUpper
attr title "packets passed to higher layer, vector(packetBytes)"
vector 279 Dynamique.Nodes[7].udp packetReceived:vector(packetBytes) ETV
attr interpolationmode none
attr source packetReceived
attr title "packets received, vector(packetBytes)"
vector 280 Dynamique.Nodes[7].udp passedUpPk:vector(count) ETV
attr interpolationmode none
attr source packetSentToUpper
attr title "packets passed up, vector(count)"
vector 281 Dynamique.Nodes[7].udp packetSent:vector(packetBytes) ETV
attr interpolationmode none
attr source packetSent
attr title "packets sent, vector(packetBytes)"
vector 282 Dynamique.Nodes[7].wlan[0].mac rcvdPkFromHl:vector(packetBytes) ETV
attr interpolationmode none
attr source packetReceivedFromUpper
attr title "packets received from higher layer, vector(packetBytes)"
vector 283 Dynamique.Nodes[7].wlan[0].mac.queue packetPushed:vector(packetBytes) ETV
attr interpolationmode none
attr title "packet pushed, vector(packetBytes)"
vector 284 Dynamique.Nodes[7].wlan[0].mac.queue queueLength:vector ETV
attr interpolationmode sample-hold
attr source "count(packetPushed) - count(packetPopped) - count(packetRemoved) - count(packetDropped)"
attr title "queue length, vector"
vector 285 Dynamique.Nodes[7].wlan[0].mac.queue packetPopped:vector(packetBytes) ETV
attr interpolationmode none
attr title "packet popped, vector(packetBytes)"
vector 286 Dynamique.Nodes[7].wlan[0].mac.queue queueingTime:vector ETV
attr interpolationmode none
attr source queueingTime(packetPopped)
attr title "queueing times, vector"
attr unit s
vector 287 Dynamique.Nodes[7].wlan[0].mac sentDownPk:vector(packetBytes) ETV
attr interpolationmode none
attr source packetSentToLower
attr title "packets sent to lower layer, vector(packetBytes)"
vector 288 Dynamique.Nodes[16].wlan[0].mac rcvdPkFromLl:vector(packetBytes) ETV
attr interpolationmode none
attr source packetReceivedFromLower
attr title "packets received from lower layer, vector(packetBytes)"
vector 289 Dynamique.Nodes[16].wlan[0].mac passedUpPk:vector(packetBytes) ETV
attr interpolationmode none
attr source packetSentToUpper
attr title "packets passed to higher layer, vector(packetBytes)"
vector 290 Dynamique.Nodes[16].udp packetReceived:vector(packetBytes) ETV
attr interpolationmode none
attr source packetReceived
attr title "packets received, vector(packetBytes)"
vector 291 Dynamique.Nodes[16].udp passedUpPk:vector(count) ETV
attr interpolationmode none
attr source packetSentToUpper
attr title "packets passed up, vector(count)"
vector 292 Dynamique.Nodes[16].udp packetSent:vector(packetBytes) ETV
attr interpolationmode none
attr source packetSent
attr title "packets sent, vector(packetBytes)"
vector 293 Dynamique.Nodes[16].wlan[0].mac rcvdPkFromHl:vector(packetBytes) ETV
attr interpolationmode none
attr source packetReceivedFromUpper
attr title "packets received from higher layer, vector(packetBytes)"
vector 294 Dynamique.Nodes[16].wlan[0].mac.queue packetPushed:vector(packetBytes) ETV
attr interpolationmode none
attr title "packet pushed, vector(packetBytes)"
vector 295 Dynamique.Nodes[16].wlan[0].mac.queue queueLength:vector ETV
attr interpolationmode sample-hold
attr source "count(packetPushed) - count(packetPopped) - count(packetRemoved) - count(packetDropped)"
attr title "queue length, vector"
vector 296 Dynamique.Nodes[16].wlan[0].mac.queue packetPopped:vector(packetBytes) ETV
attr interpolationmode none
attr title "packet popped, vector(packetBytes)"
vector 297 Dynamique.Nodes[16].wlan[0].mac.queue queueingTime:vector ETV
attr interpolationmode none
attr source queueingTime(packetPopped)
attr title "queueing times, vector"
attr unit s
vector 298 Dynamique.Nodes[16].wlan[0].mac sentDownPk:vector(packetBytes) ETV
attr interpolationmode none
attr source packetSentToLower
attr title "packets sent to lower layer, vector(packetBytes)"
vector 299 Dynamique.Nodes[18].wlan[0].mac rcvdPkFromLl:vector(packetBytes) ETV
attr interpolationmode none
attr source packetReceivedFromLower
attr title "packets received from lower layer, vector(packetBytes)"
vector 300 Dynamique.Nodes[18].wlan[0].mac passedUpPk:vector(packetBytes) ETV
attr interpolationmode none
attr source packetSentToUpper
attr title "packets passed to higher layer, vector(packetBytes)"
vector 301 Dynamique.Nodes[18].udp packetReceived:vector(packetBytes) ETV
attr interpolationmode none
attr source packetReceived
attr title "packets received, vector(packetBytes)"
vector 302 Dynamique.Nodes[18].udp passedUpPk:vector(count) ETV
attr interpolationmode none
attr source packetSentToUpper
attr title "packets passed up, vector(count)"
vector 303 Dynamique.Nodes[18].udp packetSent:vector(packetBytes) ETV
attr interpolationmode none
attr source packetSent
attr title "packets sent, vector(packetBytes)"
vector 304 Dynamique.Nodes[18].wlan[0].mac rcvdPkFromHl:vector(packetBytes) ETV
attr interpolationmode none
attr source packetReceivedFromUpper
attr title "packets received from higher layer, vector(packetBytes)"
vector 305 Dynamique.Nodes[18].wlan[0].mac.queue packetPushed:vector(packetBytes) ETV
attr interpolationmode none
attr title "packet pushed, vector(packetBytes)"
vector 306 Dynamique.Nodes[18].wlan[0].mac.queue queueLength:vector ETV
attr interpolationmode sample-hold
attr source "count(packetPushed) - count(packetPopped) - count(packetRemoved) - count(packetDropped)"
attr title "queue length, vector"
vector 307 Dynamique.Nodes[18].wlan[0].mac.queue packetPopped:vector(packetBytes) ETV
attr interpolationmode none
attr title "packet popped, vector(packetBytes)"
vector 308 Dynamique.Nodes[18].wlan[0].mac.queue queueingTime:vector ETV
attr interpolationmode none
attr source queueingTime(packetPopped)
attr title "queueing times, vector"
attr unit s
vector 309 Dynamique.Nodes[18].wlan[0].mac sentDownPk:vector(packetBytes) ETV
attr interpolationmode none
attr source packetSentToLower
attr title "packets sent to lower layer, vector(packetBytes)"
vector 310 Dynamique.Nodes[5].wlan[0].mac rcvdPkFromLl:vector(packetBytes) ETV
attr interpolationmode none
attr source packetReceivedFromLower
attr title "packets received from lower layer, vector(packetBytes)"
vector 311 Dynamique.Nodes[5].wlan[0].mac passedUpPk:vector(packetBytes) ETV
attr interpolationmode none
attr source packetSentToUpper
attr title "packets passed to higher layer, vector(packetBytes)"
vector 312 Dynamique.Nodes[5].udp packetReceived:vector(packetBytes) ETV
attr interpolationmode none
attr source packetReceived
attr title "packets received, vector(packetBytes)"
vector 313 Dynamique.Nodes[5].udp passedUpPk:vector(count) ETV
attr interpolationmode none
attr source packetSentToUpper
attr title "packets passed up, vector(count)"
vector 314 Dynamique.Nodes[5].udp packetSent:vector(packetBytes) ETV
attr interpolationmode none
attr source packetSent
attr title "packets sent, vector(packetBytes)"
vector 315 Dynamique.Nodes[5].wlan[0].mac rcvdPkFromHl:vector(packetBytes) ETV
attr interpolationmode none
attr source packetReceivedFromUpper
attr title "packets received from higher layer, vector(packetBytes)"
vector 316 Dynamique.Nodes[5].wlan[0].mac.queue packetPushed:vector(packetBytes) ETV
attr interpolationmode none
attr title "packet pushed, vector(packetBytes)"
vector 317 Dynamique.Nodes[5].wlan[0].mac.queue queueLength:vector ETV
attr interpolationmode sample-hold
attr source "count(packetPushed) - count(packetPopped) - count(packetRemoved) - count(packetDropped)"
attr title "queue length, vector"
vector 318 Dynamique.Nodes[5].wlan[0].mac.queue packetPopped:vector(packetBytes) ETV
attr interpolationmode none
attr title "packet popped, vector(packetBytes)"
vector 319 Dynamique.Nodes[5].wlan[0].mac.queue queueingTime:vector ETV
attr interpolationmode none
attr source queueingTime(packetPopped)
attr title "queueing times, vector"
attr unit s
vector 320 Dynamique.Nodes[5].wlan[0].mac sentDownPk:vector(packetBytes) ETV
attr interpolationmode none
attr source packetSentToLower
attr title "packets sent to lower layer, vector(packetBytes)"
vector 321 Dynamique.Nodes[15].wlan[0].mac rcvdPkFromLl:vector(packetBytes) ETV
attr interpolationmode none
attr source packetReceivedFromLower
attr title "packets received from lower layer, vector(packetBytes)"
vector 322 Dynamique.Nodes[15].wlan[0].mac passedUpPk:vector(packetBytes) ETV
attr interpolationmode none
attr source packetSentToUpper
attr title "packets passed to higher layer, vector(packetBytes)"
vector 323 Dynamique.Nodes[15].udp packetReceived:vector(packetBytes) ETV
attr interpolationmode none
attr source packetReceived
attr title "packets received, vector(packetBytes)"
vector 324 Dynamique.Nodes[15].udp passedUpPk:vector(count) ETV
attr interpolationmode none
attr source packetSentToUpper
attr title "packets passed up, vector(count)"
vector 325 Dynamique.Nodes[15].udp packetSent:vector(packetBytes) ETV
attr interpolationmode none
attr source packetSent
attr title "packets sent, vector(packetBytes)"
vector 326 Dynamique.Nodes[15].wlan[0].mac rcvdPkFromHl:vector(packetBytes) ETV
attr interpolationmode none
attr source packetReceivedFromUpper
attr title "packets received from higher layer, vector(packetBytes)"
vector 327 Dynamique.Nodes[15].wlan[0].mac.queue packetPushed:vector(packetBytes) ETV
attr interpolationmode none
attr title "packet pushed, vector(packetBytes)"
vector 328 Dynamique.Nodes[15].wlan[0].mac.queue queueLength:vector ETV
attr interpolationmode sample-hold
attr source "count(packetPushed) - count(packetPopped) - count(packetRemoved) - count(packetDropped)"
attr title "queue length, vector"
vector 329 Dynamique.Nodes[15].wlan[0].mac.queue packetPopped:vector(packetBytes) ETV
attr interpolationmode none
attr title "packet popped, vector(packetBytes)"
vector 330 Dynamique.Nodes[15].wlan[0].mac.queue queueingTime:vector ETV
attr interpolationmode none
attr source queueingTime(packetPopped)
attr title "queueing times, vector"
attr unit s
vector 331 Dynamique.Nodes[15].wlan[0].mac sentDownPk:vector(packetBytes) ETV
attr interpolationmode none
attr source packetSentToLower
attr title "packets sent to lower layer, vector(packetBytes)"
vector 332 Dynamique.Nodes[14].wlan[0].mac rcvdPkFromLl:vector(packetBytes) ETV
attr interpolationmode none
attr source packetReceivedFromLower
attr title "packets received from lower layer, vector(packetBytes)"
vector 333 Dynamique.Nodes[14].wlan[0].mac passedUpPk:vector(packetBytes) ETV
attr interpolationmode none
attr source packetSentToUpper
attr title "packets passed to higher layer, vector(packetBytes)"
vector 334 Dynamique.Nodes[14].udp packetReceived:vector(packetBytes) ETV
attr interpolationmode none
attr source packetReceived
attr title "packets received, vector(packetBytes)"
vector 335 Dynamique.Nodes[14].udp passedUpPk:vector(count) ETV
attr interpolationmode none
attr source packetSentToUpper
attr title "packets passed up, vector(count)"
vector 336 Dynamique.Nodes[14].udp packetSent:vector(packetBytes) ETV
attr interpolationmode none
attr source packetSent
attr title "packets sent, vector(packetBytes)"
vector 337 Dynamique.Nodes[14].wlan[0].mac rcvdPkFromHl:vector(packetBytes) ETV
attr interpolationmode none
attr source packetReceivedFromUpper
attr title "packets received from higher layer, vector(packetBytes)"
vector 338 Dynamique.Nodes[14].wlan[0].mac.queue packetPushed:vector(packetBytes) ETV
attr interpolationmode none
attr title "packet pushed, vector(packetBytes)"
vector 339 Dynamique.Nodes[14].wlan[0].mac.queue queueLength:vector ETV
attr interpolationmode sample-hold
attr source "count(packetPushed) - count(packetPopped) - count(packetRemoved) - count(packetDropped)"
attr title "queue length, vector"
vector 340 Dynamique.Nodes[14].wlan[0].mac.queue packetPopped:vector(packetBytes) ETV
attr interpolationmode none
attr title "packet popped, vector(packetBytes)"
vector 341 Dynamique.Nodes[14].wlan[0].mac.queue queueingTime:vector ETV
attr interpolationmode none
attr source queueingTime(packetPopped)
attr title "queueing times, vector"
attr unit s
vector 342 Dynamique.Nodes[14].wlan[0].mac sentDownPk:vector(packetBytes) ETV
attr interpolationmode none
attr source packetSentToLower
attr title "packets sent to lower layer, vector(packetBytes)"
vector 343 Dynamique.Nodes[19].wlan[0].mac rcvdPkFromLl:vector(packetBytes) ETV
attr interpolationmode none
attr source packetReceivedFromLower
attr title "packets received from lower layer, vector(packetBytes)"
vector 344 Dynamique.Nodes[19].wlan[0].mac passedUpPk:vector(packetBytes) ETV
attr interpolationmode none
attr source packetSentToUpper
attr title "packets passed to higher layer, vector(packetBytes)"
vector 345 Dynamique.Nodes[19].udp packetReceived:vector(packetBytes) ETV
attr interpolationmode none
attr source packetReceived
attr title "packets received, vector(packetBytes)"
vector 346 Dynamique.Nodes[19].udp passedUpPk:vector(count) ETV
attr interpolationmode none
attr source packetSentToUpper
attr title "packets passed up, vector(count)"
vector 347 Dynamique.Nodes[19].udp packetSent:vector(packetBytes) ETV
attr interpolationmode none
attr source packetSent
attr title "packets sent, vector(packetBytes)"
vector 348 Dynamique.Nodes[19].wlan[0].mac rcvdPkFromHl:vector(packetBytes) ETV
attr interpolationmode none
attr source packetReceivedFromUpper
attr title "packets received from higher layer, vector(packetBytes)"
vector 349 Dynamique.Nodes[19].wlan[0].mac.queue packetPushed:vector(packetBytes) ETV
attr interpolationmode none
attr title "packet pushed, vector(packetBytes)"
vector 350 Dynamique.Nodes[19].wlan[0].mac.queue queueLength:vector ETV
attr interpolationmode sample-hold
attr source "count(packetPushed) - count(packetPopped) - count(packetRemoved) - count(packetDropped)"
attr title "queue length, vector"
vector 351 Dynamique.Nodes[19].wlan[0].mac.queue packetPopped:vector(packetBytes) ETV
attr interpolationmode none
attr title "packet popped, vector(packetBytes)"
vector 352 Dynamique.Nodes[19].wlan[0].mac.queue queueingTime:vector ETV
attr interpolationmode none
attr source queueingTime(packetPopped)
attr title "queueing times, vector"
attr unit s
vector 353 Dynamique.Nodes[19].wlan[0].mac sentDownPk:vector(packetBytes) ETV
attr interpolationmode none
attr source packetSentToLower
attr title "packets sent to lower layer, vector(packetBytes)"
vector 354 Dynamique.Nodes[10].wlan[0].mac rcvdPkFromLl:vector(packetBytes) ETV
attr interpolationmode none
attr source packetReceivedFromLower
attr title "packets received from lower layer, vector(packetBytes)"
vector 355 Dynamique.Nodes[10].wlan[0].mac passedUpPk:vector(packetBytes) ETV
attr interpolationmode none
attr source packetSentToUpper
attr title "packets passed to higher layer, vector(packetBytes)"
vector 356 Dynamique.Nodes[10].udp packetReceived:vector(packetBytes) ETV
attr interpolationmode none
attr source packetReceived
attr title "packets received, vector(packetBytes)"
vector 357 Dynamique.Nodes[10].udp passedUpPk:vector(count) ETV
attr interpolationmode none
attr source packetSentToUpper
attr title "packets passed up, vector(count)"
vector 358 Dynamique.Nodes[10].udp packetSent:vector(packetBytes) ETV
attr interpolationmode none
attr source packetSent
attr title "packets sent, vector(packetBytes)"
vector 359 Dynamique.Nodes[10].wlan[0].mac rcvdPkFromHl:vector(packetBytes) ETV
attr interpolationmode none
attr source packetReceivedFromUpper
attr title "packets received from higher layer, vector(packetBytes)"
vector 360 Dynamique.Nodes[10].wlan[0].mac.queue packetPushed:vector(packetBytes) ETV
attr interpolationmode none
attr title "packet pushed, vector(packetBytes)"
vector 361 Dynamique.Nodes[10].wlan[0].mac.queue queueLength:vector ETV
attr interpolationmode sample-hold
attr source "count(packetPushed) - count(packetPopped) - count(packetRemoved) - count(packetDropped)"
attr title "queue length, vector"
vector 362 Dynamique.Nodes[10].wlan[0].mac.queue packetPopped:vector(packetBytes) ETV
attr interpolationmode none
attr title "packet popped, vector(packetBytes)"
vector 363 Dynamique.Nodes[10].wlan[0].mac.queue queueingTime:vector ETV
attr interpolationmode none
attr source queueingTime(packetPopped)
attr title "queueing times, vector"
attr unit s
vector 364 Dynamique.Nodes[10].wlan[0].mac sentDownPk:vector(packetBytes) ETV
attr interpolationmode none
attr source packetSentToLower
attr title "packets sent to lower layer, vector(packetBytes)"
vector 365 Dynamique.Nodes[25].wlan[0].mac rcvdPkFromLl:vector(packetBytes) ETV
attr interpolationmode none
attr source packetReceivedFromLower
attr title "packets received from lower layer, vector(packetBytes)"
vector 366 Dynamique.Nodes[25].wlan[0].mac passedUpPk:vector(packetBytes) ETV
attr interpolationmode none
attr source packetSentToUpper
attr title "packets passed to higher layer, vector(packetBytes)"
vector 367 Dynamique.Nodes[25].udp packetReceived:vector(packetBytes) ETV
attr interpolationmode none
attr source packetReceived
attr title "packets received, vector(packetBytes)"
vector 368 Dynamique.Nodes[25].udp passedUpPk:vector(count) ETV
attr interpolationmode none
attr source packetSentToUpper
attr title "packets passed up, vector(count)"
vector 369 Dynamique.Nodes[25].udp packetSent:vector(packetBytes) ETV
attr interpolationmode none
attr source packetSent
attr title "packets sent, vector(packetBytes)"
vector 370 Dynamique.Nodes[25].wlan[0].mac rcvdPkFromHl:vector(packetBytes) ETV
attr interpolationmode none
attr source packetReceivedFromUpper
attr title "packets received from higher layer, vector(packetBytes)"
vector 371 Dynamique.Nodes[25].wlan[0].mac.queue packetPushed:vector(packetBytes) ETV
attr interpolationmode none
attr title "packet pushed, vector(packetBytes)"
vector 372 Dynamique.Nodes[25].wlan[0].mac.queue queueLength:vector ETV
attr interpolationmode sample-hold
attr source "count(packetPushed) - count(packetPopped) - count(packetRemoved) - count(packetDropped)"
attr title "queue length, vector"
vector 373 Dynamique.Nodes[25].wlan[0].mac.queue packetPopped:vector(packetBytes) ETV
attr interpolationmode none
attr title "packet popped, vector(packetBytes)"
vector 374 Dynamique.Nodes[25].wlan[0].mac.queue queueingTime:vector ETV
attr interpolationmode none
attr source queueingTime(packetPopped)
attr title "queueing times, vector"
attr unit s
vector 375 Dynamique.Nodes[25].wlan[0].mac sentDownPk:vector(packetBytes) ETV
attr interpolationmode none
attr source packetSentToLower
attr title "packets sent to lower layer, vector(packetBytes)"
vector 376 Dynamique.Nodes[21].wlan[0].mac rcvdPkFromLl:vector(packetBytes) ETV
attr interpolationmode none
attr source packetReceivedFromLower
attr title "packets received from lower layer, vector(packetBytes)"
vector 377 Dynamique.Nodes[21].wlan[0].mac passedUpPk:vector(packetBytes) ETV
attr interpolationmode none
attr source packetSentToUpper
attr title "packets passed to higher layer, vector(packetBytes)"
vector 378 Dynamique.Nodes[21].udp packetReceived:vector(packetBytes) ETV
attr interpolationmode none
attr source packetReceived
attr title "packets received, vector(packetBytes)"
vector 379 Dynamique.Nodes[21].udp passedUpPk:vector(count) ETV
attr interpolationmode none
attr source packetSentToUpper
attr title "packets passed up, vector(count)"
vector 380 Dynamique.Nodes[21].udp packetSent:vector(packetBytes) ETV
attr interpolationmode none
attr source packetSent
attr title "packets sent, vector(packetBytes)"
vector 381 Dynamique.Nodes[21].wlan[0].mac rcvdPkFromHl:vector(packetBytes) ETV
attr interpolationmode none
attr source packetReceivedFromUpper
attr title "packets received from higher layer, vector(packetBytes)"
vector 382 Dynamique.Nodes[21].wlan[0].mac.queue packetPushed:vector(packetBytes) ETV
attr interpolationmode none
attr title "packet pushed, vector(packetBytes)"
vector 383 Dynamique.Nodes[21].wlan[0].mac.queue queueLength:vector ETV
attr interpolationmode sample-hold
attr source "count(packetPushed) - count(packetPopped) - count(packetRemoved) - count(packetDropped)"
attr title "queue length, vector"
vector 384 Dynamique.Nodes[21].wlan[0].mac.queue packetPopped:vector(packetBytes) ETV
attr interpolationmode none
attr title "packet popped, vector(packetBytes)"
vector 385 Dynamique.Nodes[21].wlan[0].mac.queue queueingTime:vector ETV
attr interpolationmode none
attr source queueingTime(packetPopped)
attr title "queueing times, vector"
attr unit s
vector 386 Dynamique.Nodes[21].wlan[0].mac sentDownPk:vector(packetBytes) ETV
attr interpolationmode none
attr source packetSentToLower
attr title "packets sent to lower layer, vector(packetBytes)"
vector 387 Dynamique.Nodes[9].wlan[0].mac rcvdPkFromLl:vector(packetBytes) ETV
attr interpolationmode none
attr source packetReceivedFromLower
attr title "packets received from lower layer, vector(packetBytes)"
vector 388 Dynamique.Nodes[9].wlan[0].mac passedUpPk:vector(packetBytes) ETV
attr interpolationmode none
attr source packetSentToUpper
attr title "packets passed to higher layer, vector(packetBytes)"
vector 389 Dynamique.Nodes[9].udp packetReceived:vector(packetBytes) ETV
attr interpolationmode none
attr source packetReceived
attr title "packets received, vector(packetBytes)"
vector 390 Dynamique.Nodes[9].udp passedUpPk:vector(count) ETV
attr interpolationmode none
attr source packetSentToUpper
attr title "packets passed up, vector(count)"
vector 391 Dynamique.Nodes[9].udp packetSent:vector(packetBytes) ETV
attr interpolationmode none
attr source packetSent
attr title "packets sent, vector(packetBytes)"
vector 392 Dynamique.Nodes[9].wlan[0].mac rcvdPkFromHl:vector(packetBytes) ETV
attr interpolationmode none
attr source packetReceivedFromUpper
attr title "packets received from higher layer, vector(packetBytes)"
vector 393 Dynamique.Nodes[9].wlan[0].mac.queue packetPushed:vector(packetBytes) ETV
attr interpolationmode none
attr title "packet pushed, vector(packetBytes)"
vector 394 Dynamique.Nodes[9].wlan[0].mac.queue queueLength:vector ETV
attr interpolationmode sample-hold
attr source "count(packetPushed) - count(packetPopped) - count(packetRemoved) - count(packetDropped)"
attr title "queue length, vector"
vector 395 Dynamique.Nodes[9].wlan[0].mac.queue packetPopped:vector(packetBytes) ETV
attr interpolationmode none
attr title "packet popped, vector(packetBytes)"
vector 396 Dynamique.Nodes[9].wlan[0].mac.queue queueingTime:vector ETV
attr interpolationmode none
attr source queueingTime(packetPopped)
attr title "queueing times, vector"
attr unit s
vector 397 Dynamique.Nodes[9].wlan[0].mac sentDownPk:vector(packetBytes) ETV
attr interpolationmode none
attr source packetSentToLower
attr title "packets sent to lower layer, vector(packetBytes)"
vector 398 Dynamique.Nodes[26].wlan[0].mac rcvdPkFromLl:vector(packetBytes) ETV
attr interpolationmode none
attr source packetReceivedFromLower
attr title "packets received from lower layer, vector(packetBytes)"
vector 399 Dynamique.Nodes[26].wlan[0].mac passedUpPk:vector(packetBytes) ETV
attr interpolationmode none
attr source packetSentToUpper
attr title "packets passed to higher layer, vector(packetBytes)"
vector 400 Dynamique.Nodes[26].udp packetReceived:vector(packetBytes) ETV
attr interpolationmode none
attr source packetReceived
attr title "packets received, vector(packetBytes)"
vector 401 Dynamique.Nodes[26].udp passedUpPk:vector(count) ETV
attr interpolationmode none
attr source packetSentToUpper
attr title "packets passed up, vector(count)"
vector 402 Dynamique.Nodes[26].udp packetSent:vector(packetBytes) ETV
attr interpolationmode none
attr source packetSent
attr title "packets sent, vector(packetBytes)"
vector 403 Dynamique.Nodes[26].wlan[0].mac rcvdPkFromHl:vector(packetBytes) ETV
attr interpolationmode none
attr source packetReceivedFromUpper
attr title "packets received from higher layer, vector(packetBytes)"
vector 404 Dynamique.Nodes[26].wlan[0].mac.queue packetPushed:vector(packetBytes) ETV
attr interpolationmode none
attr title "packet pushed, vector(packetBytes)"
vector 405 Dynamique.Nodes[26].wlan[0].mac.queue queueLength:vector ETV
attr interpolationmode sample-hold
attr source "count(packetPushed) - count(packetPopped) - count(packetRemoved) - count(packetDropped)"
attr title "queue length, vector"
vector 406 Dynamique.Nodes[26].wlan[0].mac.queue packetPopped:vector(packetBytes) ETV
attr interpolationmode none
attr title "packet popped, vector(packetBytes)"
vector 407 Dynamique.Nodes[26].wlan[0].mac.queue queueingTime:vector ETV
attr interpolationmode none
attr source queueingTime(packetPopped)
attr title "queueing times, vector"
attr unit s
[...]
441	464810817 779878 27697408 27697408 36044.9 39321.6 32768 0 0 0 0
441	465590695 779878 27697408 27697408 39321.7 42598.4 32768 0 0 0 0
441	466370573 779878 27697408 27697408 42598.5 45875.2 32768 0 0 0 0
441	467150451 779878 27697408 27697408 45875.3 49152 32768 0 0 0 0
441	467930329 779880 27697408 27697408 49152.1 52428.8 32768 0 0 0 0
441	468710209 779878 27697408 27697408 52428.9 55705.6 32768 0 0 0 0
441	469490087 779878 27697408 27697408 55705.7 58982.4 32768 0 0 0 0
441	470269965 779878 27697408 27697408 58982.5 62259.2 32768 0 0 0 0
441	471049843 779878 27697408 27697408 62259.3 65536 32768 0 0 0 0
441	471829721 779880 27697408 27697408 65536.1 68812.8 32768 0 0 0 0
441	472609601 779878 27697408 27697408 68812.9 72089.6 32768 0 0 0 0
441	473389479 779878 27697408 27697408 72089.7 75366.4 32768 0 0 0 0
441	474169357 779878 27697408 27697408 75366.5 78643.2 32768 0 0 0 0
441	474949235 779878 27697408 27697408 78643.3 81920 32768 0 0 0 0
441	475729113 779880 27697408 27697408 81920.1 85196.8 32768 0 0 0 0
441	476508993 779878 27697408 27697408 85196.9 88473.6 32768 0 0 0 0
441	477288871 779878 27697408 27697408 88473.7 91750.4 32768 0 0 0 0
vector 442 Dynamique.Nodes[22].app[0] throughput:vector ETV
attr source throughput(packetReceived)
attr title "throughput, vector"
attr unit bps
442	478068898 736015 27697408 27697408 0.1 3276.8 32768 0 0 0 0
442	478804913 747110 27697408 27697408 3276.9 6553.6 32768 0 0 0 0
442	479552023 747110 27697408 27697408 6553.7 9830.4 32768 0 0 0 0
442	480299133 778183 27697408 27697408 9830.5 13107.2 32768 0 0 0 0
442	481077316 779878 27697408 27697408 13107.3 16384 32768 0 0 0 0
442	481857194 779880 27697408 27697408 16384.1 19660.8 32768 0 0 0 0
442	482637074 779878 27697408 27697408 19660.9 22937.6 32768 0 0 0 0
442	483416952 779878 27697408 27697408 22937.7 26214.4 32768 0 0 0 0
442	484196830 779878 27697408 27697408 26214.5 29491.2 32768 0 0 0 0
442	484976708 779878 27697408 27697408 29491.3 32768 32768 0 0 0 0
442	485756586 779880 27697408 27697408 32768.1 36044.8 32768 0 0 0 0
442	486536466 779878 27697408 27697408 36044.9 39321.6 32768 0 0 0 0
442	487316344 779878 27697408 27697408 39321.7 42598.4 32768 0 0 0 0
442	488096222 779878 27697408 27697408 42598.5 45875.2 32768 0 0 0 0
442	488876100 779878 27697408 27697408 45875.3 49152 32768 0 0 0 0
442	489655978 779880 27697408 27697408 49152.1 52428.8 32768 0 0 0 0
442	490435858 779878 27697408 27697408 52428.9 55705.6 32768 0 0 0 0
442	491215736 779878 27697408 27697408 55705.7 58982.4 32768 0 0 0 0
442	491995614 779878 27697408 27697408 58982.5 62259.2 32768 0 0 0 0
442	492775492 779878 27697408 27697408 62259.3 65536 32768 0 0 0 0
442	493555370 779880 27697408 27697408 65536.1 68812.8 32768 0 0 0 0
442	494335250 779878 27697408 27697408 68812.9 72089.6 32768 0 0 0 0
442	495115128 779878 27697408 27697408 72089.7 75366.4 32768 0 0 0 0
442	495895006 779878 27697408 27697408 75366.5 78643.2 32768 0 0 0 0
442	496674884 779878 27697408 27697408 78643.3 81920 32768 0 0 0 0
442	497454762 779880 27697408 27697408 81920.1 85196.8 32768 0 0 0 0
442	498234642 779878 27697408 27697408 85196.9 88473.6 32768 0 0 0 0
442	499014520 779878 27697408 27697408 88473.7 91750.4 32768 0 0 0 0
vector 443 Dynamique.Nodes[23].app[0] throughput:vector ETV
attr source throughput(packetReceived)
attr title "throughput, vector"
attr unit bps
443	499794547 736015 27697408 27697408 0.1 3276.8 32768 0 0 0 0
443	500530562 747110 27697408 27697408 3276.9 6553.6 32768 0 0 0 0
443	501277672 747110 27697408 27697408 6553.7 9830.4 32768 0 0 0 0
443	502024782 778183 27697408 27697408 9830.5 13107.2 32768 0 0 0 0
443	502802965 779878 27697408 27697408 13107.3 16384 32768 0 0 0 0
443	503582843 779880 27697408 27697408 16384.1 19660.8 32768 0 0 0 0
443	504362723 779878 27697408 27697408 19660.9 22937.6 32768 0 0 0 0
443	505142601 779878 27697408 27697408 22937.7 26214.4 32768 0 0 0 0
443	505922479 779878 27697408 27697408 26214.5 29491.2 32768 0 0 0 0
443	506702357 779878 27697408 27697408 29491.3 32768 32768 0 0 0 0
443	507482235 779880 27697408 27697408 32768.1 36044.8 32768 0 0 0 0
443	508262115 779878 27697408 27697408 36044.9 39321.6 32768 0 0 0 0
443	509041993 779878 27697408 27697408 39321.7 42598.4 32768 0 0 0 0
443	509821871 779878 27697408 27697408 42598.5 45875.2 32768 0 0 0 0
443	510601749 779878 27697408 27697408 45875.3 49152 32768 0 0 0 0
443	511381627 779880 27697408 27697408 49152.1 52428.8 32768 0 0 0 0
443	512161507 779878 27697408 27697408 52428.9 55705.6 32768 0 0 0 0
443	512941385 779878 27697408 27697408 55705.7 58982.4 32768 0 0 0 0
443	513721263 779878 27697408 27697408 58982.5 62259.2 32768 0 0 0 0
443	514501141 779878 27697408 27697408 62259.3 65536 32768 0 0 0 0
443	515281019 779880 27697408 27697408 65536.1 68812.8 32768 0 0 0 0
443	516060899 779878 27697408 27697408 68812.9 72089.6 32768 0 0 0 0
443	516840777 779878 27697408 27697408 72089.7 75366.4 32768 0 0 0 0
443	517620655 779878 27697408 27697408 75366.5 78643.2 32768 0 0 0 0
443	518400533 779878 27697408 27697408 78643.3 81920 32768 0 0 0 0
443	519180411 779880 27697408 27697408 81920.1 85196.8 32768 0 0 0 0
443	519960291 779878 27697408 27697408 85196.9 88473.6 32768 0 0 0 0
443	520740169 779878 27697408 27697408 88473.7 91750.4 32768 0 0 0 0
vector 444 Dynamique.Nodes[24].app[0] throughput:vector ETV
attr source throughput(packetReceived)
attr title "throughput, vector"
attr unit bps
444	521520196 736015 27697408 27697408 0.1 3276.8 32768 0 0 0 0
444	522256211 747110 27697408 27697408 3276.9 6553.6 32768 0 0 0 0
444	523003321 747110 27697408 27697408 6553.7 9830.4 32768 0 0 0 0
444	523750431 778183 27697408 27697408 9830.5 13107.2 32768 0 0 0 0
444	524528614 779878 27697408 27697408 13107.3 16384 32768 0 0 0 0
444	525308492 779880 27697408 27697408 16384.1 19660.8 32768 0 0 0 0
444	526088372 779878 27697408 27697408 19660.9 22937.6 32768 0 0 0 0
444	526868250 779878 27697408 27697408 22937.7 26214.4 32768 0 0 0 0
444	527648128 779878 27697408 27697408 26214.5 29491.2 32768 0 0 0 0
444	528428006 779878 27697408 27697408 29491.3 32768 32768 0 0 0 0
444	529207884 779880 27697408 27697408 32768.1 36044.8 32768 0 0 0 0
444	529987764 779878 27697408 27697408 36044.9 39321.6 32768 0 0 0 0
444	530767642 779878 27697408 27697408 39321.7 42598.4 32768 0 0 0 0
444	531547520 779878 27697408 27697408 42598.5 45875.2 32768 0 0 0 0
444	532327398 779878 27697408 27697408 45875.3 49152 32768 0 0 0 0
444	533107276 779880 27697408 27697408 49152.1 52428.8 32768 0 0 0 0
444	533887156 779878 27697408 27697408 52428.9 55705.6 32768 0 0 0 0
444	534667034 779878 27697408 27697408 55705.7 58982.4 32768 0 0 0 0
444	535446912 779878 27697408 27697408 58982.5 62259.2 32768 0 0 0 0
444	536226790 779878 27697408 27697408 62259.3 65536 32768 0 0 0 0
444	537006668 779880 27697408 27697408 65536.1 68812.8 32768 0 0 0 0
444	537786548 779878 27697408 27697408 68812.9 72089.6 32768 0 0 0 0
444	538566426 779878 27697408 27697408 72089.7 75366.4 32768 0 0 0 0
444	539346304 779878 27697408 27697408 75366.5 78643.2 32768 0 0 0 0
444	540126182 779878 27697408 27697408 78643.3 81920 32768 0 0 0 0
444	540906060 779880 27697408 27697408 81920.1 85196.8 32768 0 0 0 0
444	541685940 779878 27697408 27697408 85196.9 88473.6 32768 0 0 0 0
444	542465818 779878 27697408 27697408 88473.7 91750.4 32768 0 0 0 0
vector 445 Dynamique.Nodes[25].app[0] throughput:vector ETV
attr source throughput(packetReceived)
attr title "throughput, vector"
attr unit bps
445	543245845 736015 27697408 27697408 0.1 3276.8 32768 0 0 0 0
445	543981860 747110 27697408 27697408 3276.9 6553.6 32768 0 0 0 0
445	544728970 747110 27697408 27697408 6553.7 9830.4 32768 0 0 0 0
445	545476080 778183 27697408 27697408 9830.5 13107.2 32768 0 0 0 0
445	546254263 779878 27697408 27697408 13107.3 16384 32768 0 0 0 0
445	547034141 779880 27697408 27697408 16384.1 19660.8 32768 0 0 0 0
445	547814021 779878 27697408 27697408 19660.9 22937.6 32768 0 0 0 0
445	548593899 779878 27697408 27697408 22937.7 26214.4 32768 0 0 0 0
445	549373777 779878 27697408 27697408 26214.5 29491.2 32768 0 0 0 0
445	550153655 779878 27697408 27697408 29491.3 32768 32768 0 0 0 0
445	550933533 779880 27697408 27697408 32768.1 36044.8 32768 0 0 0 0
445	551713413 779878 27697408 27697408 36044.9 39321.6 32768 0 0 0 0
445	552493291 779878 27697408 27697408 39321.7 42598.4 32768 0 0 0 0
445	553273169 779878 27697408 27697408 42598.5 45875.2 32768 0 0 0 0
445	554053047 779878 27697408 27697408 45875.3 49152 32768 0 0 0 0
445	554832925 779880 27697408 27697408 49152.1 52428.8 32768 0 0 0 0
445	555612805 779878 27697408 27697408 52428.9 55705.6 32768 0 0 0 0
445	556392683 779878 27697408 27697408 55705.7 58982.4 32768 0 0 0 0
445	557172561 779878 27697408 27697408 58982.5 62259.2 32768 0 0 0 0
445	557952439 779878 27697408 27697408 62259.3 65536 32768 0 0 0 0
445	558732317 779880 27697408 27697408 65536.1 68812.8 32768 0 0 0 0
445	559512197 779878 27697408 27697408 68812.9 72089.6 32768 0 0 0 0
445	560292075 779878 27697408 27697408 72089.7 75366.4 32768 0 0 0 0
445	561071953 779878 27697408 27697408 75366.5 78643.2 32768 0 0 0 0
445	561851831 779878 27697408 27697408 78643.3 81920 32768 0 0 0 0
445	562631709 779880 27697408 27697408 81920.1 85196.8 32768 0 0 0 0
445	563411589 779878 27697408 27697408 85196.9 88473.6 32768 0 0 0 0
445	564191467 779878 27697408 27697408 88473.7 91750.4 32768 0 0 0 0
vector 446 Dynamique.Nodes[26].app[0] throughput:vector ETV
attr source throughput(packetReceived)
attr title "throughput, vector"
attr unit bps
446	564971494 736015 27697408 27697408 0.1 3276.8 32768 0 0 0 0
446	565707509 747110 27697408 27697408 3276.9 6553.6 32768 0 0 0 0
446	566454619 747110 27697408 27697408 6553.7 9830.4 32768 0 0 0 0
446	567201729 778183 27697408 27697408 9830.5 13107.2 32768 0 0 0 0
446	567979912 779878 27697408 27697408 13107.3 16384 32768 0 0 0 0
446	568759790 779880 27697408 27697408 16384.1 19660.8 32768 0 0 0 0
446	569539670 779878 27697408 27697408 19660.9 22937.6 32768 0 0 0 0
446	570319548 779878 27697408 27697408 22937.7 26214.4 32768 0 0 0 0
446	571099426 779878 27697408 27697408 26214.5 29491.2 32768 0 0 0 0
446	571879304 779878 27697408 27697408 29491.3 32768 32768 0 0 0 0
446	572659182 779880 27697408 27697408 32768.1 36044.8 32768 0 0 0 0
446	573439062 779878 27697408 27697408 36044.9 39321.6 32768 0 0 0 0
446	574218940 779878 27697408 27697408 39321.7 42598.4 32768 0 0 0 0
446	574998818 779878 27697408 27697408 42598.5 45875.2 32768 0 0 0 0
446	575778696 779878 27697408 27697408 45875.3 49152 32768 0 0 0 0
446	576558574 779880 27697408 27697408 49152.1 52428.8 32768 0 0 0 0
446	577338454 779878 27697408 27697408 52428.9 55705.6 32768 0 0 0 0
446	578118332 779878 27697408 27697408 55705.7 58982.4 32768 0 0 0 0
446	578898210 779878 27697408 27697408 58982.5 62259.2 32768 0 0 0 0
446	579678088 779878 27697408 27697408 62259.3 65536 32768 0 0 0 0
446	580457966 779880 27697408 27697408 65536.1 68812.8 32768 0 0 0 0
446	581237846 779878 27697408 27697408 68812.9 72089.6 32768 0 0 0 0
446	582017724 779878 27697408 27697408 72089.7 75366.4 32768 0 0 0 0
446	582797602 779878 27697408 27697408 75366.5 78643.2 32768 0 0 0 0
446	583577480 779878 27697408 27697408 78643.3 81920 32768 0 0 0 0
446	584357358 779880 27697408 27697408 81920.1 85196.8 32768 0 0 0 0
446	585137238 779878 27697408 27697408 85196.9 88473.6 32768 0 0 0 0
446	585917116 779878 27697408 27697408 88473.7 91750.4 32768 0 0 0 0
vector 447 Dynamique.Nodes[27].app[0] throughput:vector ETV
attr source throughput(packetReceived)
attr title "throughput, vector"
attr unit bps
447	586697143 736015 27697408 27697408 0.1 3276.8 32768 0 0 0 0
447	587433158 747110 27697408 27697408 3276.9 6553.6 32768 0 0 0 0
447	588180268 747110 27697408 27697408 6553.7 9830.4 32768 0 0 0 0
447	588927378 778183 27697408 27697408 9830.5 13107.2 32768 0 0 0 0
447	589705561 779878 27697408 27697408 13107.3 16384 32768 0 0 0 0
447	590485439 779880 27697408 27697408 16384.1 19660.8 32768 0 0 0 0
447	591265319 779878 27697408 27697408 19660.9 22937.6 32768 0 0 0 0
447	592045197 779878 27697408 27697408 22937.7 26214.4 32768 0 0 0 0
447	592825075 779878 27697408 27697408 26214.5 29491.2 32768 0 0 0 0
447	593604953 779878 27697408 27697408 29491.3 32768 32768 0 0 0 0
447	594384831 779880 27697408 27697408 32768.1 36044.8 32768 0 0 0 0
447	595164711 779878 27697408 27697408 36044.9 39321.6 32768 0 0 0 0
447	595944589 779878 27697408 27697408 39321.7 42598.4 32768 0 0 0 0
447	596724467 779878 27697408 27697408 42598.5 45875.2 32768 0 0 0 0
447	597504345 779878 27697408 27697408 45875.3 49152 32768 0 0 0 0
447	598284223 779880 27697408 27697408 49152.1 52428.8 32768 0 0 0 0
447	599064103 779878 27697408 27697408 52428.9 55705.6 32768 0 0 0 0
447	599843981 779878 27697408 27697408 55705.7 58982.4 32768 0 0 0 0
447	600623859 779878 27697408 27697408 58982.5 62259.2 32768 0 0 0 0
447	601403737 779878 27697408 27697408 62259.3 65536 32768 0 0 0 0
447	602183615 779880 27697408 27697408 65536.1 68812.8 32768 0 0 0 0
447	602963495 779878 27697408 27697408 68812.9 72089.6 32768 0 0 0 0
447	603743373 779878 27697408 27697408 72089.7 75366.4 32768 0 0 0 0
447	604523251 779878 27697408 27697408 75366.5 78643.2 32768 0 0 0 0
447	605303129 779878 27697408 27697408 78643.3 81920 32768 0 0 0 0
447	606083007 779880 27697408 27697408 81920.1 85196.8 32768 0 0 0 0
447	606862887 779878 27697408 27697408 85196.9 88473.6 32768 0 0 0 0
447	607642765 779878 27697408 27697408 88473.7 91750.4 32768 0 0 0 0
vector 448 Dynamique.Nodes[28].app[0] throughput:vector ETV
attr source throughput(packetReceived)
attr title "throughput, vector"
attr unit bps
448	608422792 736015 27697408 27697408 0.1 3276.8 32768 0 0 0 0
448	609158807 747110 27697408 27697408 3276.9 6553.6 32768 0 0 0 0
448	609905917 747110 27697408 27697408 6553.7 9830.4 32768 0 0 0 0
448	610653027 778183 27697408 27697408 9830.5 13107.2 32768 0 0 0 0
448	611431210 779878 27697408 27697408 13107.3 16384 32768 0 0 0 0
448	612211088 779880 27697408 27697408 16384.1 19660.8 32768 0 0 0 0
448	612990968 779878 27697408 27697408 19660.9 22937.6 32768 0 0 0 0
448	613770846 779878 27697408 27697408 22937.7 26214.4 32768 0 0 0 0
448	614550724 779878 27697408 27697408 26214.5 29491.2 32768 0 0 0 0
448	615330602 779878 27697408 27697408 29491.3 32768 32768 0 0 0 0
448	616110480 779880 27697408 27697408 32768.1 36044.8 32768 0 0 0 0
448	616890360 779878 27697408 27697408 36044.9 39321.6 32768 0 0 0 0
448	617670238 779878 27697408 27697408 39321.7 42598.4 32768 0 0 0 0
448	618450116 779878 27697408 27697408 42598.5 45875.2 32768 0 0 0 0
448	619229994 779878 27697408 27697408 45875.3 49152 32768 0 0 0 0
448	620009872 779880 27697408 27697408 49152.1 52428.8 32768 0 0 0 0
448	620789752 779878 27697408 27697408 52428.9 55705.6 32768 0 0 0 0
448	621569630 779878 27697408 27697408 55705.7 58982.4 32768 0 0 0 0
448	622349508 779878 27697408 27697408 58982.5 62259.2 32768 0 0 0 0
448	623129386 779878 27697408 27697408 62259.3 65536 32768 0 0 0 0
448	623909264 779880 27697408 27697408 65536.1 68812.8 32768 0 0 0 0
448	624689144 779878 27697408 27697408 68812.9 72089.6 32768 0 0 0 0
448	625469022 779878 27697408 27697408 72089.7 75366.4 32768 0 0 0 0
448	626248900 779878 27697408 27697408 75366.5 78643.2 32768 0 0 0 0
448	627028778 779878 27697408 27697408 78643.3 81920 32768 0 0 0 0
448	627808656 779880 27697408 27697408 81920.1 85196.8 32768 0 0 0 0
448	628588536 779878 27697408 27697408 85196.9 88473.6 32768 0 0 0 0
448	629368414 779878 27697408 27697408 88473.7 91750.4 32768 0 0 0 0
vector 449 Dynamique.Nodes[29].app[0] throughput:vector ETV
attr source throughput(packetReceived)
attr title "throughput, vector"
attr unit bps
449	630148441 736015 27697408 27697408 0.1 3276.8 32768 0 0 0 0
449	630884456 747110 27697408 27697408 3276.9 6553.6 32768 0 0 0 0
449	631631566 747110 27697408 27697408 6553.7 9830.4 32768 0 0 0 0
449	632378676 778183 27697408 27697408 9830.5 13107.2 32768 0 0 0 0
449	633156859 779878 27697408 27697408 13107.3 16384 32768 0 0 0 0
449	633936737 779880 27697408 27697408 16384.1 19660.8 32768 0 0 0 0
449	634716617 779878 27697408 27697408 19660.9 22937.6 32768 0 0 0 0
449	635496495 779878 27697408 27697408 22937.7 26214.4 32768 0 0 0 0
449	636276373 779878 27697408 27697408 26214.5 29491.2 32768 0 0 0 0
449	637056251 779878 27697408 27697408 29491.3 32768 32768 0 0 0 0
449	637836129 779880 27697408 27697408 32768.1 36044.8 32768 0 0 0 0
449	638616009 779878 27697408 27697408 36044.9 39321.6 32768 0 0 0 0
449	639395887 779878 27697408 27697408 39321.7 42598.4 32768 0 0 0 0
449	640175765 779878 27697408 27697408 42598.5 45875.2 32768 0 0 0 0
449	640955643 779878 27697408 27697408 45875.3 49152 32768 0 0 0 0
449	641735521 779880 27697408 27697408 49152.1 52428.8 32768 0 0 0 0
449	642515401 779878 27697408 27697408 52428.9 55705.6 32768 0 0 0 0
449	643295279 779878 27697408 27697408 55705.7 58982.4 32768 0 0 0 0
449	644075157 779878 27697408 27697408 58982.5 62259.2 32768 0 0 0 0
449	644855035 779878 27697408 27697408 62259.3 65536 32768 0 0 0 0
449	645634913 779880 27697408 27697408 65536.1 68812.8 32768 0 0 0 0
449	646414793 779878 27697408 27697408 68812.9 72089.6 32768 0 0 0 0
449	647194671 779878 27697408 27697408 72089.7 75366.4 32768 0 0 0 0
449	647974549 779878 27697408 27697408 75366.5 78643.2 32768 0 0 0 0
449	648754427 779878 27697408 27697408 78643.3 81920 32768 0 0 0 0
449	649534305 779880 27697408 27697408 81920.1 85196.8 32768 0 0 0 0
449	650314185 779878 27697408 27697408 85196.9 88473.6 32768 0 0 0 0
449	651094063 779878 27697408 27697408 88473.7 91750.4 32768 0 0 0 0
420	651873941 134874 27697408 27697408 91750.5 92317.1 5667 0 0 0 0
421	652008815 134874 27697408 27697408 91750.5 92317.1 5667 0 0 0 0
422	652143689 134874 27697408 27697408 91750.5 92317.1 5667 0 0 0 0
423	652278563 134874 27697408 27697408 91750.5 92317.1 5667 0 0 0 0
424	652413437 134874 27697408 27697408 91750.5 92317.1 5667 0 0 0 0
425	652548311 134874 27697408 27697408 91750.5 92317.1 5667 0 0 0 0
426	652683185 134874 27697408 27697408 91750.5 92317.1 5667 0 0 0 0
427	652818059 134874 27697408 27697408 91750.5 92317.1 5667 0 0 0 0
428	652952933 134874 27697408 27697408 91750.5 92317.1 5667 0 0 0 0
429	653087807 134874 27697408 27697408 91750.5 92317.1 5667 0 0 0 0
430	653222681 134874 27697408 27697408 91750.5 92317.1 5667 0 0 0 0
431	653357555 134874 27697408 27697408 91750.5 92317.1 5667 0 0 0 0
432	653492429 134874 27697408 27697408 91750.5 92317.1 5667 0 0 0 0
433	653627303 134874 27697408 27697408 91750.5 92317.1 5667 0 0 0 0
434	653762177 134874 27697408 27697408 91750.5 92317.1 5667 0 0 0 0
435	653897051 134874 27697408 27697408 91750.5 92317.1 5667 0 0 0 0
436	654031925 134874 27697408 27697408 91750.5 92317.1 5667 0 0 0 0
437	654166799 134874 27697408 27697408 91750.5 92317.1 5667 0 0 0 0
438	654301673 134874 27697408 27697408 91750.5 92317.1 5667 0 0 0 0
439	654436547 134874 27697408 27697408 91750.5 92317.1 5667 0 0 0 0
440	654571421 134874 27697408 27697408 91750.5 92317.1 5667 0 0 0 0
441	654706295 134874 27697408 27697408 91750.5 92317.1 5667 0 0 0 0
442	654841169 134874 27697408 27697408 91750.5 92317.1 5667 0 0 0 0
443	654976043 134874 27697408 27697408 91750.5 92317.1 5667 0 0 0 0
444	655110917 134874 27697408 27697408 91750.5 92317.1 5667 0 0 0 0
445	655245791 134874 27697408 27697408 91750.5 92317.1 5667 0 0 0 0
446	655380665 134874 27697408 27697408 91750.5 92317.1 5667 0 0 0 0
447	655515539 134874 27697408 27697408 91750.5 92317.1 5667 0 0 0 0
448	655650413 134874 27697408 27697408 91750.5 92317.1 5667 0 0 0 0
449	655785287 134874 27697408 27697408 91750.5 92317.1 5667 0 0 0 0

